pglib_opf_case6468_rte/dapi/pglib_opf_case6468_rte_16regions_dapi.m
% -------------------------------------------------------------------------
% Partitioned MATPOWER Case File
% Copyright (c) 2025 Milad Hasanzadeh
% Generated on: 2026-06-14
% This file contains partitioned data for 16 regions


% -------------------- mpc_regionR1 --------------------

mpc_regionR1.version = '2';
mpc_regionR1.baseMVA = 100.0000;
mpc_regionR1.bus = [
%	bus_i       type        Pd          Qd          Gs          Bs          area        Vm          Va          baseKV      zone        Vmax        Vmin        
	 1	 1	 0	 0	 0	 0	 1	 0.94444	 0	 45	 1	 1	 0.88889;
	 2	 1	 16.9	 0	 0	 0	 1	 1	 0	 63	 1	 1.06349	 0.93651;
	 3	 1	 0	 0	 0	 0	 1	 0.94444	 0	 45	 1	 1	 0.88889;
	 4	 1	 2.3	-18.3	 0	 0	 1	 0.94444	 0	 45	 1	 1	 0.88889;
	 5	 1	 35.02	 4.6	 0	 0	 1	 1	 0	 63	 1	 1.06349	 0.93651;
	 6	 1	 0	 0	 0	 0	 1	 1	 0	 63	 1	 1.06349	 0.93651;
	 7	 1	 0	 0	 0	 0	 1	 1.00334	 0	 150	 1	 1.10667	 0.9;
	 8	 1	 0	 0	 0	 0	 1	 1.01111	 0	 225	 1	 1.08889	 0.93333;
	 9	 1	 0	 0	 0	 0	 1	 1.01111	 0	 225	 1	 1.08889	 0.93333;
	 10	 1	 0	 0	 0	 0	 1	 1.07237	 0	 380	 1	 1.10526	 1.03947;
	 11	 1	 0	 0	 0	 0	 1	 1.07237	 0	 380	 1	 1.10526	 1.03947;
	 12	 1	 0	 0	 0	 0	 1	 1.00543	 0	 63	 1	 1.07436	 0.93651;
	 13	 1	 0	 0	 0	 0	 1	 1.01111	 0	 225	 1	 1.08889	 0.93333;
	 14	 1	 0.7	-0.3	 0	 0	 1	 0.94444	 0	 45	 1	 1	 0.88889;
	 15	 1	 0	 0	 0	 0	 1	 0.94444	 0	 45	 1	 1	 0.88889;
	 16	 1	 2.3	-2.5	 0	 0	 1	 0.94444	 0	 45	 1	 1	 0.88889;
	 17	 1	 0.9	-0.6	 0	 0	 1	 1	 0	 63	 1	 1.06349	 0.93651;
	 18	 1	 55.72	 7.4	 0	 0	 1	 1	 0	 63	 1	 1.06349	 0.93651;
	 19	 1	 11.5	-1	 0	 0	 1	 1	 0	 63	 1	 1.06349	 0.93651;
	 20	 1	 29.9	-1.3	 0	 0	 1	 1	 0	 63	 1	 1.06349	 0.93651;
	 21	 1	 30.09	 3.6	 0	 0	 1	 1	 0	 63	 1	 1.06349	 0.93651;
	 22	 1	 50.42	 5.6	 0	 0	 1	 1	 0	 63	 1	 1.06349	 0.93651;
	 23	 1	-0.1	-2.1	 0	 0	 1	 0.94444	 0	 45	 1	 1	 0.88889;
	 24	 2	 0	 0	 0	 0	 1	 0.94444	 0	 45	 1	 1	 0.88889;
	 25	 1	 0	 0	 0	 0	 1	 1	 0	 63	 1	 1.06349	 0.93651;
	 26	 2	 0	 0	 0	 0	 1	 0.94444	 0	 45	 1	 1	 0.88889;
	 27	 1	 45.01	 1	 0	 0	 1	 1	 0	 63	 1	 1.06349	 0.93651;
	 28	 2	 17.09	 2.8	 0	 0	 1	 1	 0	 63	 1	 1.06349	 0.93651;
	 29	 1	 0	 0	 0	 0	 1	 1.01111	 0	 225	 1	 1.08889	 0.93333;
	 30	 1	 15.9	-1.2	 0	 0	 1	 1	 0	 63	 1	 1.06349	 0.93651;
	 31	 2	 0	 0	 0	 0	 1	 1	 0	 63	 1	 1.06349	 0.93651;
	 32	 1	-0.1	-0.2	 0	 0	 1	 1	 0	 63	 1	 1.06349	 0.93651;
	 33	 1	 0	 0	 0	 0	 1	 1.01111	 0	 225	 1	 1.08889	 0.93333;
	 34	 1	 0	 0	 0	 0	 1	 1.07237	 0	 380	 1	 1.10526	 1.03947;
	 35	 1	 0	 0	 0	 0	 1	 1.07237	 0	 380	 1	 1.10526	 1.03947;
	 36	 1	 0	-0.2	 0	 0	 1	 1	 0	 63	 1	 1.06349	 0.93651;
	 37	 2	 0	 0	 0	 0	 1	 1	 0	 63	 1	 1.06349	 0.93651;
	 38	 1	-1.2	 1.4	 0	 0	 1	 1	 0	 63	 1	 1.06349	 0.93651;
	 39	 1	 0	 0	 0	 0	 1	 0.94444	 0	 45	 1	 1	 0.88889;
	 40	 2	 12.76	 1	 0	 0	 1	 1	 0	 63	 1	 1.06349	 0.93651;
	 41	 1	 23.5	 0	 0	 0	 1	 1	 0	 63	 1	 1.06349	 0.93651;
	 42	 1	 24.3	-3	 0	 0	 1	 1	 0	 63	 1	 1.06349	 0.93651;
	 43	 1	 30.09	 2.7	 0	 0	 1	 1	 0	 63	 1	 1.06349	 0.93651;
	 44	 2	 35.5	 0	 0	 0	 1	 1	 0	 63	 1	 1.06349	 0.93651;
	 45	 1	 9.3	-0.5	 0	 0	 1	 1	 0	 63	 1	 1.06349	 0.93651;
	 46	 1	 15.4	-3.2	 0	 0	 1	 1	 0	 63	 1	 1.06349	 0.93651;
	 47	 2	 0	 0	 0	 0	 1	 1.01111	 0	 225	 1	 1.08889	 0.93333;
	 48	 1	 31.53	 5.4	 0	 0	 1	 1.01587	 0	 63	 1	 1.06349	 0.96825;
	 49	 1	 0	 0	 0	 0	 1	 1.02333	 0	 150	 1	 1.08	 0.96667;
	 50	 1	 0	 0	 0	 0	 1	 1	 0	 63	 1	 1.06349	 0.93651;
	 51	 2	 0	 0	 0	 0	 1	 0.94444	 0	 45	 1	 1	 0.88889;
	 52	 2	 11.9	 0	 0	 0	 1	 0.94444	 0	 45	 1	 1	 0.88889;
	 53	 2	 0	 0	 0	 0	 1	 1	 0	 63	 1	 1.06349	 0.93651;
	 54	 1	 0	 0	 0	 0	 1	 1	 0	 63	 1	 1.06349	 0.93651;
	 55	 2	 0	 0	 0	 0	 1	 0.94444	 0	 45	 1	 1	 0.88889;
	 56	 1	 36.9	 0	 0	 0	 1	 1	 0	 63	 1	 1.06349	 0.93651;
	 57	 1	 0	 0	 0	 0	 1	 1	 0	 63	 1	 1.06349	 0.93651;
	 58	 1	 0	 0	 0	 0	 1	 1.01111	 0	 225	 1	 1.08889	 0.93333;
	 59	 2	 0	 0	 0	 0	 1	 1	 0	 63	 1	 1.06349	 0.93651;
	 60	 1	 0	 0	 0	 0	 1	 0.94444	 0	 45	 1	 1	 0.88889;
	 61	 1	 0	 0	 0	 0	 1	 0.94444	 0	 45	 1	 1	 0.88889;
	 62	 1	 0	 0	 0	 0	 1	 0.94444	 0	 45	 1	 1	 0.88889;
	 63	 1	 0	 0	 0	 0	 1	 1.00017	 0	 63	 1	 1.06384	 0.93651;
	 64	 2	 0	 0	 0	 0	 1	 1	 0	 63	 1	 1.06349	 0.93651;
	 65	 1	 47.54	 7.2	 0	 0	 1	 1	 0	 63	 1	 1.06349	 0.93651;
	 66	 2	 5	 0	 0	 0	 1	 0.975	 0	 20	 1	 1.15	 0.8;
	 67	 1	 0	 0	 0	 0	 1	 1.07237	 0	 380	 1	 1.10526	 1.03947;
	 68	 1	 16.37	 9.7	 0	 0	 1	 1.00334	 0	 150	 1	 1.10667	 0.9;
	 69	 1	 0	 0	 0	 0	 1	 1	 0	 63	 1	 1.06349	 0.93651;
	 70	 1	 0	 0	 0	 0	 1	 1	 0	 63	 1	 1.06349	 0.93651;
	 71	 1	 0	 0	 0	 0	 1	 1.01111	 0	 225	 1	 1.08889	 0.93333;
	 72	 1	 0	 0	 0	 0	 1	 0.94444	 0	 45	 1	 1	 0.88889;
	 73	 1	 7	-8.8	 0	 0	 1	 1	 0	 63	 1	 1.06349	 0.93651;
	 74	 1	 0	 0	 0	 0	 1	 1	 0	 63	 1	 1.06349	 0.93651;
	 75	 1	 16.1	-1.6	 0	 0	 1	 1	 0	 63	 1	 1.06349	 0.93651;
	 76	 1	 38.39	 5	 0	 0	 1	 1	 0	 63	 1	 1.06349	 0.93651;
	 77	 1	 0	 0	 0	 0	 1	 1.01111	 0	 225	 1	 1.08889	 0.93333;
	 78	 1	 0	 0	 0	 0	 1	 1.01111	 0	 225	 1	 1.08889	 0.93333;
	 79	 1	 0	 0	 0	 0	 1	 1.07237	 0	 380	 1	 1.10526	 1.03947;
	 80	 1	 64.02	 1.7	 0	 0	 1	 1	 0	 63	 1	 1.06349	 0.93651;
	 81	 1	 16.73	 0.5	 0	 0	 1	 1.01111	 0	 225	 1	 1.08889	 0.93333;
	 82	 1	 2.77	 1.7	 0	 0	 1	 0.94444	 0	 45	 1	 1	 0.88889;
	 83	 1	 0.36	 0.6	 0	 0	 1	 0.94444	 0	 45	 1	 1	 0.88889;
	 84	 2	 0	 0	 0	 0	 1	 0.94444	 0	 45	 1	 1	 0.88889;
	 85	 1	 0	 0	 0	 0	 1	 0.94444	 0	 45	 1	 1	 0.88889;
	 86	 1	 0	 0	 0	 0	 1	 1	 0	 63	 1	 1.06349	 0.93651;
	 87	 1	-0.1	-0.2	 0	 0	 1	 1	 0	 63	 1	 1.06349	 0.93651;
	 88	 2	 0	 0	 0	 0	 1	 1	 0	 63	 1	 1.06349	 0.93651;
	 89	 1	 0	 0	 0	 0	 1	 1.07237	 0	 380	 1	 1.10526	 1.03947;
	 90	 1	 32.3	-2.2	 0	 0	 1	 1	 0	 63	 1	 1.06349	 0.93651;
	 91	 1	-1.2	-0.1	 0	 0	 1	 0.94444	 0	 45	 1	 1	 0.88889;
	 92	 1	 36.1	 4.2	 0	 0	 1	 1.00044	 0	 63	 1	 1.06438	 0.93651;
	 93	 1	 20.1	 3.4	 0	 0	 1	 1	 0	 63	 1	 1.06349	 0.93651;
	 94	 1	 9.6	-2.4	 0	 0	 1	 1.00184	 0	 63	 1	 1.06717	 0.93651;
	 95	 1	 26.24	 2.9	 0	 0	 1	 1	 0	 63	 1	 1.06349	 0.93651;
	 96	 2	 0	 0	 0	 0	 1	 0.975	 0	 20	 1	 1.15	 0.8;
	 97	 1	-3.1	 0	 0	 0	 1	 1	 0	 63	 1	 1.06349	 0.93651;
	 98	 2	 0	 0	 0	 0	 1	 1	 0	 63	 1	 1.06349	 0.93651;
	 99	 1	 1.81	 0.4	 0	 0	 1	 1	 0	 63	 1	 1.06349	 0.93651;
	 100	 1	 0.4	-0.3	 0	 0	 1	 1	 0	 63	 1	 1.06349	 0.93651;
	 101	 1	 0	 0	 0	 0	 1	 1.01111	 0	 225	 1	 1.08889	 0.93333;
	 102	 2	 0	 0	 0	 0	 1	 1	 0	 63	 1	 1.06349	 0.93651;
	 103	 1	 0	-1	 0	 0	 1	 1	 0	 63	 1	 1.06349	 0.93651;
	 104	 2	 0	 0	 0	 0	 1	 0.94444	 0	 45	 1	 1	 0.88889;
	 105	 1	 0	 0	 0	 0	 1	 0.94444	 0	 45	 1	 1	 0.88889;
	 106	 1	 20.7	 3	 0	 0	 1	 1	 0	 63	 1	 1.06349	 0.93651;
	 107	 1	 0	 0	 0	 0	 1	 1.01111	 0	 225	 1	 1.08889	 0.93333;
	 108	 2	 0	 0	 0	 0	 1	 0.94444	 0	 45	 1	 1	 0.88889;
	 109	 1	 0	 0	 0	 0	 1	 1.01111	 0	 225	 1	 1.08889	 0.93333;
	 110	 1	 14.9	 0	 0	 0	 1	 1	 0	 63	 1	 1.06349	 0.93651;
	 111	 1	 19.62	 7.6	 0	 0	 1	 0.94444	 0	 45	 1	 1	 0.88889;
	 112	 1	 0	 0	 0	 0	 1	 0.94444	 0	 45	 1	 1	 0.88889;
	 113	 1	 17.69	 11.2	 0	 0	 1	 1	 0	 63	 1	 1.06349	 0.93651;
	 114	 1	 0	 0	 0	 0	 1	 1.00334	 0	 150	 1	 1.10667	 0.9;
	 115	 1	 0	 0	 0	 0	 1	 1.01111	 0	 225	 1	 1.08889	 0.93333;
	 116	 1	 18.65	 15.8	 0	 0	 1	 1	 0	 63	 1	 1.06349	 0.93651;
	 117	 1	 0	 0	 0	 0	 1	 1.01111	 0	 225	 1	 1.08889	 0.93333;
	 118	 1	 2.4	-1.5	 0	 0	 1	 1.00102	 0	 63	 1	 1.06553	 0.93651;
	 119	 1	 0	 0	 0	 0	 1	 1	 0	 63	 1	 1.06349	 0.93651;
	 120	 1	 63.3	 3.1	 0	 0	 1	 1	 0	 63	 1	 1.06349	 0.93651;
	 121	 1	 29.6	 0.7	 0	 0	 1	 1	 0	 63	 1	 1.06349	 0.93651;
	 122	 1	 0	 0	 0	 0	 1	 1	 0	 63	 1	 1.06349	 0.93651;
	 123	 1	 29.7	-3	 0	 0	 1	 1	 0	 63	 1	 1.06349	 0.93651;
	 124	 1	 15.64	 4	 0	 0	 1	 1.00295	 0	 63	 1	 1.06939	 0.93651;
	 125	 1	 32.01	 0.6	 0	 0	 1	 1	 0	 63	 1	 1.06349	 0.93651;
	 126	 2	 12.6	-2.7	 0	 0	 1	 1	 0	 63	 1	 1.06349	 0.93651;
	 127	 2	 14.5	 0	 0	 0	 1	 1	 0	 63	 1	 1.06349	 0.93651;
	 128	 1	 0	 0	 0	 0	 1	 1	 0	 63	 1	 1.06349	 0.93651;
	 129	 1	 1	-2	 0	 0	 1	 0.94444	 0	 45	 1	 1	 0.88889;
	 130	 2	 0	 0	 0	 0	 1	 0.94444	 0	 45	 1	 1	 0.88889;
	 131	 1	 22.26	 1.7	 0	 0	 1	 1.00167	 0	 63	 1	 1.06683	 0.93651;
	 132	 1	 0	 0	 0	 0	 1	 1.07237	 0	 380	 1	 1.10526	 1.03947;
	 133	 1	 1.08	 0.3	 0	 0	 1	 1	 0	 63	 1	 1.06349	 0.93651;
	 134	 1	 2.3	-0	 0	 0	 1	 0.94444	 0	 45	 1	 1	 0.88889;
	 135	 1	 0	 0	 0	 0	 1	 1.01111	 0	 225	 1	 1.08889	 0.93333;
	 136	 1	 3	 0	 0	 0	 1	 0.94444	 0	 45	 1	 1	 0.88889;
	 137	 2	 29.3	 0	 0	 0	 1	 1	 0	 63	 1	 1.06349	 0.93651;
	 138	 1	 0	 0	 0	 0	 1	 1.01111	 0	 225	 1	 1.08889	 0.93333;
	 139	 1	 0	-0.9	 0	 0	 1	 0.94444	 0	 45	 1	 1	 0.88889;
	 140	 1	 15.9	 0	 0	 0	 1	 1	 0	 63	 1	 1.06349	 0.93651;
	 141	 1	 28.76	 2.1	 0	 0	 1	 1	 0	 63	 1	 1.06349	 0.93651;
	 142	 1	 37.91	 12.3	 0	 0	 1	 1	 0	 63	 1	 1.06349	 0.93651;
	 143	 2	 0	 0	 0	 0	 1	 1	 0	 63	 1	 1.06349	 0.93651;
	 144	 2	 0	 0	 0	 0	 1	 0.975	 0	 20	 1	 1.15	 0.8;
	 145	 1	-6	 0	 0	 0	 1	 1	 0	 63	 1	 1.06349	 0.93651;
	 146	 2	 0	 0	 0	 0	 1	 1	 0	 63	 1	 1.06349	 0.93651;
	 147	 1	 0	 0	 0	 0	 1	 1	 0	 63	 1	 1.06349	 0.93651;
	 148	 1	 0	 0	 0	 0	 1	 1.01111	 0	 225	 1	 1.08889	 0.93333;
	 149	 1	 20.58	 1.3	 0	 0	 1	 1.00297	 0	 63	 1	 1.06944	 0.93651;
	 150	 1	 0	 0	 0	 0	 1	 1	 0	 63	 1	 1.06349	 0.93651;
	 151	 1	 0	 0	 0	 0	 1	 1.01111	 0	 225	 1	 1.08889	 0.93333;
	 152	 1	 0	 0	 0	 0	 1	 1.07237	 0	 380	 1	 1.10526	 1.03947;
	 153	 1	 0	 0	 0	 0	 1	 1.07237	 0	 380	 1	 1.10526	 1.03947;
	 154	 2	 0	 0	 0	 0	 1	 1	 0	 63	 1	 1.06349	 0.93651;
	 155	 2	 0	 0	 0	 0	 1	 1	 0	 63	 1	 1.06349	 0.93651;
	 156	 1	-1	-1	 0	 0	 1	 0.94444	 0	 45	 1	 1	 0.88889;
	 157	 1	 0	 0	 0	 0	 1	 1	 0	 63	 1	 1.06349	 0.93651;
	 158	 1	 0	 0	 0	 0	 1	 1.00334	 0	 150	 1	 1.10667	 0.9;
	 159	 1	 0	 0	 0	 0	 1	 1.01111	 0	 225	 1	 1.08889	 0.93333;
	 160	 2	 0	 0	 0	 0	 1	 1	 0	 63	 1	 1.06349	 0.93651;
	 161	 1	-1.5	-3.4	 0	 0	 1	 1	 0	 63	 1	 1.06349	 0.93651;
	 162	 1	 23.2	-4.9	 0	 0	 1	 1	 0	 63	 1	 1.06349	 0.93651;
	 163	 2	 0	 0	 0	 0	 1	 0.94444	 0	 45	 1	 1	 0.88889;
	 164	 1	 7.4	-0.6	 0	 0	 1	 0.94444	 0	 45	 1	 1	 0.88889;
	 165	 1	 0	 0	 0	 0	 1	 1.01111	 0	 225	 1	 1.08889	 0.93333;
	 166	 1	 0	 0	 0	 0	 1	 1	 0	 63	 1	 1.06349	 0.93651;
	 167	 1	 0	 0	 0	 0	 1	 1	 0	 63	 1	 1.06349	 0.93651;
	 168	 1	 0	 0	 0	 0	 1	 1.01111	 0	 225	 1	 1.08889	 0.93333;
	 169	 1	 14.92	 3.3	 0	 0	 1	 0.94444	 0	 45	 1	 1	 0.88889;
	 170	 2	 0	 0	 0	 0	 1	 1	 0	 63	 1	 1.06349	 0.93651;
	 171	 1	 42.48	 3.7	 0	 0	 1	 1	 0	 63	 1	 1.06349	 0.93651;
	 172	 1	-0.1	-0	 0	 0	 1	 0.94444	 0	 45	 1	 1	 0.88889;
	 173	 1	 0	 0	 0	 0	 1	 0.94444	 0	 45	 1	 1	 0.88889;
	 174	 1	 27.6	-0.6	 0	 0	 1	 1	 0	 63	 1	 1.06349	 0.93651;
	 175	 1	 0	 0	 0	 0	 1	 1.01647	 0	 63	 1	 1.06469	 0.96825;
	 176	 1	 0	 0	 0	 0	 1	 1.01647	 0	 63	 1	 1.06469	 0.96825;
	 177	 1	 24.6	 0	 0	 0	 1	 1.02333	 0	 150	 1	 1.08	 0.96667;
	 178	 1	 0	 0	 0	 0	 1	 1.07237	 0	 380	 1	 1.10526	 1.03947;
	 179	 1	 31.17	 1.6	 0	 0	 1	 1	 0	 63	 1	 1.06349	 0.93651;
	 180	 1	 0	-0.8	 0	 0	 1	 1	 0	 63	 1	 1.06349	 0.93651;
	 181	 1	 2.41	 1	 0	 0	 1	 0.94444	 0	 45	 1	 1	 0.88889;
	 182	 1	 3.61	 1.2	 0	 0	 1	 1	 0	 63	 1	 1.06349	 0.93651;
	 183	 1	 13.6	-2.1	 0	 0	 1	 1	 0	 63	 1	 1.06349	 0.93651;
	 184	 1	 37.7	-1.8	 0	 0	 1	 1.00292	 0	 63	 1	 1.06933	 0.93651;
	 185	 1	 0	-1	 0	 0	 1	 0.94444	 0	 45	 1	 1	 0.88889;
	 186	 1	 0	 0	 0	 0	 1	 0.94444	 0	 45	 1	 1	 0.88889;
	 187	 1	-0.2	-0.1	 0	 0	 1	 1	 0	 63	 1	 1.06349	 0.93651;
	 188	 1	 0	 0	 0	 0	 1	 1	 0	 63	 1	 1.06349	 0.93651;
	 189	 1	 45.49	 5.2	 0	 0	 1	 0.94444	 0	 45	 1	 1	 0.88889;
	 190	 1	 0	 0	 0	 0	 1	 1.01111	 0	 225	 1	 1.08889	 0.93333;
	 191	 2	 0	 0	 0	 0	 1	 1	 0	 63	 1	 1.06349	 0.93651;
	 192	 1	 0	 0	 0	 0	 1	 1.01111	 0	 225	 1	 1.08889	 0.93333;
	 193	 2	 0	 0	 0	 0	 1	 0.94444	 0	 45	 1	 1	 0.88889;
	 194	 1	 2.29	 5.1	 0	 0	 1	 0.94444	 0	 45	 1	 1	 0.88889;
	 195	 1	 0	 0	 0	 0	 1	 1.01111	 0	 225	 1	 1.08889	 0.93333;
	 196	 1	 1.2	 0.5	 0	 0	 1	 1	 0	 63	 1	 1.06349	 0.93651;
	 197	 1	 17.69	 1.3	 0	 0	 1	 1	 0	 63	 1	 1.06349	 0.93651;
	 198	 2	 1.2	 0	 0	 0	 1	 1	 0	 63	 1	 1.06349	 0.93651;
	 199	 2	 0	 0	 0	 0	 1	 0.94444	 0	 45	 1	 1	 0.88889;
	 200	 1	 0	 0	 0	 0	 1	 1.07237	 0	 380	 1	 1.10526	 1.03947;
...
];

mpc_regionR1.gen = [
%	bus         Pg          Qg          Qmax        Qmin        Vg          mBase       status      Pmax        Pmin        Pc1         Pc2         Qc1min      Qc1max      Qc2min      Qc2max      ramp_agc    ramp_10     ramp_30     ramp_q      apf         
	 24	 0	 1.1	 10	-13	 0.94444	 100	 0	 10	 0;
	 24	 0	-1.9	 16	-16	 0.94444	 100	 0	 31	 0;
	 26	 0	-2.64	 79	-79	 0.94444	 100	 0	 158	 0;
	 28	 0	 0	 68	-68	 1	 100	 0	 136	 0;
	 28	 0	-2.59	 92	-92	 1	 100	 0	 183	 0;
	 28	 0	-2.59	 25	-25	 1	 100	 0	 50	 0;
	 28	 0	-2.59	 10	-10	 1	 100	 0	 15	 0;
	 31	 0	-2.62	 54	-54	 1	 100	 0	 107	 0;
	 37	 0	-3.72	 6	-6	 1	 100	 0	 2	 0;
	 37	 0	-5.4	 42	-42	 1	 100	 0	 83	 0;
	 40	 0	-2.21	 144	-144	 1	 100	 0	 288	 0;
	 40	 0	-2.21	 17	-16	 1	 100	 0	 16	 0;
	 40	 0	-2.21	 116	-116	 1	 100	 0	 231	 0;
	 44	 0	-4.04	 109	-109	 1	 100	 0	 218	 0;
	 47	 0	-8.3	 19	-19	 1.01111	 100	 0	 37	-8.3;
	 51	 0	-0.6	 32	-32	 0.94444	 100	 0	 63	 0;
	 51	 0	-0.6	 15	-15	 0.94444	 100	 0	 29	 0;
	 51	 0	-0.6	 25	-25	 0.94444	 100	 0	 50	 0;
	 51	 0	-0.6	 69	-69	 0.94444	 100	 0	 137	 0;
	 52	 0	 0.69	 137	-137	 0.94444	 100	 0	 273	 0;
	 52	 0	 1.19	 147	-147	 0.94444	 100	 0	 294	 0;
	 52	 0	 1.6	 19	-19	 0.94444	 100	 0	 37	 0;
	 52	 0	-1.31	 59	-59	 0.94444	 100	 0	 118	 0;
	 53	 0	-2.63	 11	-11	 1	 100	 0	 22	-5;
	 55	 0	-2.73	 13	-13	 0.94444	 100	 0	 25	 0;
	 59	 0	-0.1	 46	-46	 1	 100	 0	 92	 0;
	 64	 0	-2.24	 55	-55	 1	 100	 0	 110	 0;
	 66	 0	-1.46	 50	-40	 0.975	 100	 0	 74	-75;
	 66	 0	 27.65	 50	-40	 0.975	 100	 0	 4	-75;
	 84	 0	-1.7	 6.5	-6.5	 0.94444	 100	 0	 4	 0;
	 88	 141	 0	 141	-141	 1	 100	 1	 282	 0;
	 96	 0	-2	 131	-131	 0.975	 100	 0	 262	 0;
	 96	 0	-3.14	 89	-89	 0.975	 100	 0	 178	 0;
	 98	 0	-2.54	 345	-345	 1	 100	 0	 690	 0;
	 102	 0	-2.36	 10	-10	 1	 100	 0	 20	 0;
	 104	 0	-1.37	 97	-97	 0.94444	 100	 0	 193	 0;
	 108	 0	 4.7	 16	-16	 0.94444	 100	 0	 31	 0;
	 126	 80	 0	 80	-80	 1	 100	 1	 160	 0;
	 127	 0	-1.04	 5	-5	 1	 100	 0	 9	 0;
	 130	 0	-3.85	 106	-106	 0.94444	 100	 0	 211	 0;
	 137	 0	 0	 83	-83	 1	 100	 0	 165	 0.4;
	 143	 168.5	 0	 169	-169	 1	 100	 1	 337	 0;
	 144	 0	-3.56	 15	-10	 0.975	 100	 0	 5	 0;
	 146	 0	-16.02	 97	-97	 1	 100	 0	 194	 0;
	 154	 0	-2.2	 6	-6	 1	 100	 0	 5	 0;
	 155	 0	-3.37	 17	-11	 1	 100	 0	 22	 0;
	 160	 0	-2.52	 200	-200	 1	 100	 0	 399	 0;
	 163	 0	-1.22	 56	-56	 0.94444	 100	 0	 111	 0;
	 170	 0	-0.94	 10	-10	 1	 100	 0	 20	 0;
	 191	 0	-4.94	 117	-117	 1	 100	 0	 233	 0;
	 193	 0	-0.71	 18	-18	 0.94444	 100	 0	 35	 0;
	 193	 0	-0.71	 6.4	-6.4	 0.94444	 100	 0	 4	 0;
	 198	 0	 0	 9.8	-9.8	 1	 100	 0	 7	 0.1;
	 199	 0	 0.94	 95	-95	 0.94444	 100	 0	 189	 0;
	 202	 0	-3.31	 17	-18	 1	 100	 0	 33	 0;
	 205	 0	-4.91	 52	-52	 1	 100	 0	 103	 0;
	 248	 0	-0.32	 7	-7	 0.975	 100	 0	 14	 0;
	 248	 0	-0.32	 34	-34	 0.975	 100	 0	 68	 0;
	 250	 0	-0.11	 55	-55	 0.975	 100	 0	 109	 0;
	 250	 0	-0.11	 15	-15	 0.975	 100	 0	 30	 0;
	 257	 0	-2.21	 551	-551	 0.975	 100	 0	 1102	 0;
	 257	 0	-2.21	 450	-450	 0.975	 100	 0	 141	 0;
	 257	 0	-2.21	 450	-450	 0.975	 100	 0	 38	 0;
	 257	 0	-2.21	 450	-450	 0.975	 100	 0	 109	 0;
	 257	 0	-2.21	 450	-450	 0.975	 100	 0	 663	 0;
	 257	 0	-2.21	 450	-450	 0.975	 100	 0	 310	 0;
	 258	 0	-1.74	 692	-692	 0.975	 100	 0	 1384	 0;
	 258	 453	 0	 924	-924	 0.975	 100	 1	 906	 0;
	 258	 0	-1.74	 450	-450	 0.975	 100	 0	 82	 0;
	 261	 135.5	-3.145	 136	-142.29	 0.975	 100	 1	 271	 0;
	 270	 0	-6.21	 450	-450	 0.975	 100	 0	 207	 0;
	 270	 0	-60	 72	-60	 0.975	 100	 0	 0	-70;
	 270	 0	-60	 72	-60	 0.975	 100	 0	 0	-85;
	 273	 0	-82.25	 98.7	-82.25	 0.975	 100	 0	 0	-38.97;
	 275	 0	-2.79	 450	-450	 0.975	 100	 0	 62	 0;
	 275	 0	 62.21	 65	-74.652	 0.975	 100	 0	 0	-2;
	 277	 0	-4.17	 5.004	-4.17	 0.975	 100	 0	 0	-4.1;
	 278	 437.5	 0	 669.6	-669.6	 0.975	 100	 1	 875	 0;
	 278	 437.5	 0	 669.6	-669.6	 0.975	 100	 1	 875	 0;
	 279	-110.5	-35	 182	-252	 0.975	 100	 1	 59	-280;
	 279	-110	-35	 182	-252	 0.975	 100	 1	 60	-280;
	 279	-93.5	-35	 182	-252	 0.975	 100	 1	 93	-280;
	 279	-40	-35	 182	-252	 0.975	 100	 1	 200	-280;
	 283	 0	 2.9	 5.71	-3.48	 0.975	 100	 0	 0	-52.52;
	 283	 0	 2.9	 5.71	-3.48	 0.975	 100	 0	 0	-52.52;
	 284	 184	 0	 1238.4	-1238.4	 0.975	 100	 1	 368	 0;
	 284	 392	 0	 1238.4	-1238.4	 0.975	 100	 1	 784	 0;
	 286	 0	 3.22	 5.4	-3.864	 0.975	 100	 0	 0	-2.58;
	 286	 0	 3.22	 5.4	-3.864	 0.975	 100	 0	 0	-2.58;
	 288	 0	-1.28	 1.536	-1.28	 0.975	 100	 0	 0	-19.57;
	 289	 103	 0	 664.8	-664.8	 0.975	 100	 1	 206	 0;
	 289	 77.5	 0	 664.8	-664.8	 0.975	 100	 1	 155	 0;
	 294	 0	-0.02	 99	-99	 0.975	 100	 0	 27	 0;
	 294	 0	-0.02	 156	-156	 0.975	 100	 0	 311	 0;
	 294	 0	-3.16	 216	-216	 0.975	 100	 0	 172	 0;
	 295	 0	-3.73	 120	-120	 0.975	 100	 0	 60	 0;
	 295	 0	 28.71	 32.44	-34.452	 0.975	 100	 0	 0	-211.95;
	 295	 58.5	 0	 193.2	-193.2	 0.975	 100	 1	 117	 0;
	 295	 0	 28.71	 120	-120	 0.975	 100	 0	 15	 0;
	 295	 37.5	 0	 193.2	-193.2	 0.975	 100	 1	 75	 0;
	 295	 0	-3.73	 120	-120	 0.975	 100	 0	 191	 0;
	 295	 0	-3.73	 149	-149	 0.975	 100	 0	 298	 0;
	 296	 0	 2.06	 22	-22	 0.975	 100	 0	 43	 0;
	 298	 0	-5.05	 14	-14	 0.975	 100	 0	 27	 0;
	 299	 0	-1.07	 1.284	-1.07	 0.975	 100	 0	 0	-0.37;
	 299	 0	-1.07	 1.284	-1.07	 0.975	 100	 0	 0	-0.37;
	 301	 114.5	 0	 3372	-3372	 0.975	 100	 1	 229	 0;
	 302	 60	 0	 134.4	-134.4	 0.975	 100	 1	 120	 0;
	 303	 63	 0	 63	-63	 0.975	 100	 1	 126	 0;
	 304	 71	 0	 71	-71	 0.975	 100	 1	 142	 0;
	 305	 77.5	 0	 78	-78	 0.975	 100	 1	 155	 0;
	 306	 40.5	 7.1	 55.2	-41	 0.975	 100	 1	 81	 0;
	 307	 68	 0	 68	-68	 0.975	 100	 1	 136	 0;
	 308	 17.7	 8.555	 37.51	-20.4	 0.975	 100	 1	 35	 0.4;
	 309	 18	 0.785	 19.57	-18	 0.975	 100	 1	 36	 0;
	 310	 0	-6.57	 19.57	-10.43	 0.975	 100	 0	 18	 0;
	 311	 30	 0	 30	-30	 0.975	 100	 1	 60	 0;
	 312	 0	-6.57	 20	-20	 0.975	 100	 0	 39	 0;
	 313	 0	 46.1	 114.06	-98	 0.975	 100	 0	 195	-161;
	 314	 0	 46.68	 114.06	-56.016	 0.975	 100	 0	 38	-161;
	 315	 0	-11.85	 89.4	-50.6	 0.975	 100	 0	 14	-64;
];

mpc_regionR1.branch = [
%	fbus        tbus        r           x           b           rateA       rateB       rateC       ratio       angle       status      angmin      angmax      
	 185	 1	 0.005726	 0.010482	 0	 2186	 2186	 2186	 0	 0	 1	-30	 30;
	 216	 1	 0.01284	 0.025679	 0	 910	 910	 910	 0	 0	 1	-30	 30;
	 37	 2	 0.053893	 0.14258	 0.0017	 194	 194	 194	 0	 0	 1	-30	 30;
	 156	 3	 0.009383	 0.019753	 0	 1194	 1194	 1194	 0	 0	 1	-30	 30;
	 156	 4	 0.001975	 0.004444	 0	 5369	 5369	 5369	 0	 0	 1	-30	 30;
	 70	 5	 0.047115	 0.117158	 0.001	 234	 234	 234	 0	 0	 1	-30	 30;
	 116	 5	 0.039557	 0.120937	 0.0132	 233	 233	 233	 0	 0	 1	-30	 30;
	 140	 5	 0.022676	 0.062484	 0.0007	 445	 445	 445	 0	 0	 1	-30	 30;
	 22	 6	 0.009574	 0.03875	 0.0114	 740	 740	 740	 0	 0	 1	-30	 30;
	 133	 6	 0.000171	 0.000313	 0.0002	 82782	 82782	 82782	 0	 0	 1	-30	 30;
	 154	 6	 0.034266	 0.09423	 0.001	 295	 295	 295	 0	 0	 1	-30	 30;
	 188	 6	 0.006803	 0.028219	 0	 1018	 1018	 1018	 0	 0	 1	-30	 30;
	 22	 6	 0.008566	 0.037541	 0.0121	 767	 767	 767	 0	 0	 1	-30	 30;
	 158	 7	 0.009733	 0.034089	 0.0185	 902	 902	 902	 0	 0	 1	-30	 30;
	 33	 9	 0.000277	 0.002015	 0.003	 15218	 15218	 15218	 0	 0	 1	-30	 30;
	 58	 8	 0.00881	 0.033995	 0.0607	 882	 882	 882	 0	 0	 1	-30	 30;
	 71	 8	 0.004642	 0.019832	 0.0354	 1520	 1520	 1520	 0	 0	 1	-30	 30;
	 115	 9	 0.008861	 0.03506	 0.0623	 856	 856	 856	 0	 0	 1	-30	 30;
	 117	 9	 0.006993	 0.032869	 0.0557	 922	 922	 922	 0	 0	 1	-30	 30;
	 190	 8	 0.002173	 0.008731	 0.0152	 3441	 3441	 3441	 0	 0	 1	-30	 30;
	 195	 9	 0.00077	 0.003121	 0.0051	 9629	 9629	 9629	 0	 0	 1	-30	 30;
	 233	 8	 0.004109	 0.016138	 0.0284	 1859	 1859	 1859	 0	 0	 1	-30	 30;
	 35	 10	 8.3e-05	 0.000907	 0.0202	 1034	 1034	 1034	 0	 0	 1	-30	 30;
	 67	 10	 0.000552	 0.006726	 0.0939	 1786	 1786	 1786	 0	 0	 1	-30	 30;
	 132	 10	 0.001107	 0.00918	 0.1906	 1644	 1644	 1644	 0	 0	 1	-30	 30;
	 34	 11	 6.2e-05	 0.000741	 0.0173	 1095	 1095	 1095	 0	 0	 1	-30	 30;
	 37	 12	 0.028193	 0.104535	 0.0013	 278	 278	 278	 0	 0	 1	-30	 30;
	 93	 12	 0.055404	 0.171429	 0.01	 167	 167	 167	 0	 0	 1	-30	 30;
	 149	 12	 0.010834	 0.071554	 0.001	 416	 416	 416	 0	 0	 1	-30	 30;
	 184	 12	 0.013857	 0.030234	 0.0003	 905	 905	 905	 0	 0	 1	-30	 30;
	 149	 12	 0.011414	 0.070648	 0.0009	 421	 421	 421	 0	 0	 1	-30	 30;
	 184	 12	 0.013757	 0.030108	 0.0003	 909	 909	 909	 0	 0	 1	-30	 30;
	 77	 13	 0.00478	 0.028622	 0.0547	 455	 455	 455	 0	 0	 1	-30	 30;
	 78	 13	 0.00478	 0.028583	 0.0547	 455	 455	 455	 0	 0	 1	-30	 30;
	 209	 14	 0.000444	 0.001136	 0	 21404	 21404	 21404	 0	 0	 1	-30	 30;
	 156	 15	 0.057284	 0.130864	 0	 183	 183	 183	 0	 0	 1	-30	 30;
	 105	 16	 0.006914	 0.020741	 0	 1195	 1195	 1195	 0	 0	 1	-30	 30;
	 167	 17	 0.009549	 0.040766	 0.0005	 706	 706	 706	 0	 0	 1	-30	 30;
	 43	 18	 0.024792	 0.057949	 0.003	 469	 469	 469	 0	 0	 1	-30	 30;
	 75	 18	 0.028723	 0.11683	 0.0015	 246	 246	 246	 0	 0	 1	-30	 30;
	 76	 18	 0.027589	 0.112547	 0.0048	 255	 255	 255	 0	 0	 1	-30	 30;
	 146	 19	 0.038725	 0.112799	 0.0116	 248	 248	 248	 0	 0	 1	-30	 30;
	 162	 19	 0.023935	 0.079617	 0.0021	 356	 356	 356	 0	 0	 1	-30	 30;
	 116	 20	 0.013605	 0.039305	 0.0061	 710	 710	 710	 0	 0	 1	-30	 30;
	 201	 21	 0.004485	 0.01683	 0.0154	 1696	 1696	 1696	 0	 0	 1	-30	 30;
	 103	 22	 0.007307	 0.030486	 0.0071	 942	 942	 942	 0	 0	 1	-30	 30;
	 51	 23	 0.138123	 0.332	 0.001	 73	 73	 73	 0	 0	 1	-30	 30;
	 189	 24	 0.000988	 0.003457	 0	 7261	 7261	 7261	 0	 0	 1	-30	 30;
	 241	 23	 0.008395	 0.02321	 0	 1058	 1058	 1058	 0	 0	 1	-30	 30;
	 95	 25	 0.047518	 0.118922	 0.0013	 231	 231	 231	 0	 0	 1	-30	 30;
	 119	 25	 0.022928	 0.053414	 0.0006	 508	 508	 508	 0	 0	 1	-30	 30;
	 120	 25	 0.080373	 0.201562	 0.004	 137	 137	 137	 0	 0	 1	-30	 30;
	 154	 25	 0.019652	 0.05291	 0.001	 524	 524	 524	 0	 0	 1	-30	 30;
	 211	 26	 0.000494	 0.000988	 0	 23633	 23633	 23633	 0	 0	 1	-30	 30;
	 57	 27	 0.042303	 0.10708	 0.0017	 257	 257	 257	 0	 0	 1	-30	 30;
	 161	 27	 0.006047	 0.015117	 0	 1814	 1814	 1814	 0	 0	 1	-30	 30;
	 31	 28	 0.004031	 0.009826	 0.0001	 2780	 2780	 2780	 0	 0	 1	-30	 30;
	 40	 28	 0.024943	 0.112371	 0.003	 257	 257	 257	 0	 0	 1	-30	 30;
	 53	 28	 0.006097	 0.011161	 0.0002	 2322	 2322	 2322	 0	 0	 1	-30	 30;
	 110	 28	 0.106843	 0.195575	 0.0051	 133	 133	 133	 0	 0	 1	-30	 30;
	 187	 28	 0.010582	 0.039557	 0.001	 722	 722	 722	 0	 0	 1	-30	 30;
	 151	 29	 0.002114	 0.008553	 0.0152	 3514	 3514	 3514	 0	 0	 1	-30	 30;
	 123	 30	 0.024943	 0.069287	 0	 401	 401	 401	 0	 0	 1	-30	 30;
	 188	 32	 0.001114	 0.002039	 0.0009	 12708	 12708	 12708	 0	 0	 1	-30	 30;
	 107	 33	 0.001936	 0.0128	 0.0182	 2391	 2391	 2391	 0	 0	 1	-30	 30;
	 69	 36	 0.008314	 0.018645	 0.0002	 1447	 1447	 1447	 0	 0	 1	-30	 30;
	 123	 37	 0.078181	 0.17866	 0.0021	 152	 152	 152	 0	 0	 1	-30	 30;
	 56	 38	 0.062358	 0.148047	 0.0068	 184	 184	 184	 0	 0	 1	-30	 30;
	 137	 38	 0.018392	 0.05291	 0.001	 528	 528	 528	 0	 0	 1	-30	 30;
	 160	 38	 0.011208	 0.020515	 0.0002	 1264	 1264	 1264	 0	 0	 1	-30	 30;
	 164	 39	 0.059259	 0.163457	 0	 151	 151	 151	 0	 0	 1	-30	 30;
	 50	 40	 0.008062	 0.027463	 0.0021	 1032	 1032	 1032	 0	 0	 1	-30	 30;
	 100	 40	 0.01033	 0.036029	 0.003	 788	 788	 788	 0	 0	 1	-30	 30;
	 150	 40	 0.000252	 0.00126	 0.0021	 22978	 22978	 22978	 0	 0	 1	-30	 30;
	 76	 41	 0.099585	 0.18229	 0.0019	 143	 143	 143	 0	 0	 1	-30	 30;
	 75	 42	 0.034517	 0.092719	 0.003	 299	 299	 299	 0	 0	 1	-30	 30;
	 225	 42	 0.06198	 0.16125	 0.0021	 171	 171	 171	 0	 0	 1	-30	 30;
	 74	 43	 0.045352	 0.114386	 0.0013	 240	 240	 240	 0	 0	 1	-30	 30;
	 90	 43	 0.060721	 0.154699	 0.0021	 178	 178	 178	 0	 0	 1	-30	 30;
	 70	 44	 0.033762	 0.104056	 0.001	 270	 270	 270	 0	 0	 1	-30	 30;
	 202	 44	 0.017637	 0.050139	 0.001	 556	 556	 556	 0	 0	 1	-30	 30;
	 220	 44	 0.010078	 0.031494	 0	 893	 893	 893	 0	 0	 1	-30	 30;
	 212	 45	 0.000252	 0.000504	 0	 52398	 52398	 52398	 0	 0	 1	-30	 30;
	 198	 46	 0.04258	 0.119678	 0.001	 233	 233	 233	 0	 0	 1	-30	 30;
	 205	 46	 0.031494	 0.082137	 0.001	 336	 336	 336	 0	 0	 1	-30	 30;
	 217	 46	 0.004787	 0.013605	 0.001	 2048	 2048	 2048	 0	 0	 1	-30	 30;
	 243	 46	 0.033006	 0.122449	 0.001	 233	 233	 233	 0	 0	 1	-30	 30;
	 117	 47	 0.00352	 0.014823	 0.0263	 2032	 2032	 2032	 0	 0	 1	-30	 30;
	 213	 49	 0.001111	 0.003244	 0.0014	 8880	 8880	 8880	 0	 0	 1	-30	 30;
	 104	 51	 0.022222	 0.047407	 0.0002	 499	 499	 499	 0	 0	 1	-30	 30;
	 227	 51	 0.034568	 0.075062	 0	 316	 316	 316	 0	 0	 1	-30	 30;
	 163	 52	 0.074074	 0.158025	 0.0012	 150	 150	 150	 0	 0	 1	-30	 30;
	 227	 52	 0.02321	 0.051852	 0	 460	 460	 460	 0	 0	 1	-30	 30;
	 244	 52	 0.044444	 0.09679	 0	 246	 246	 246	 0	 0	 1	-30	 30;
	 194	 52	 0.108938	 0.258025	 0.001	 94	 94	 94	 0	 0	 1	-30	 30;
	 214	 54	 0.000171	 0.000313	 0.0002	 82782	 82782	 82782	 0	 0	 1	-30	 30;
	 129	 55	 0.028148	 0.076543	 0	 321	 321	 321	 0	 0	 1	-30	 30;
	 164	 55	 0.019753	 0.048889	 0	 496	 496	 496	 0	 0	 1	-30	 30;
	 128	 56	 0.000342	 0.000625	 0.0002	 41442	 41442	 41442	 0	 0	 1	-30	 30;
	 137	 56	 0.059713	 0.152179	 0.003	 181	 181	 181	 0	 0	 1	-30	 30;
	 80	 57	 0.002822	 0.013404	 0.02	 2156	 2156	 2156	 0	 0	 1	-30	 30;
	 141	 57	 0.010834	 0.033006	 0.0146	 850	 850	 850	 0	 0	 1	-30	 30;
	 215	 57	 0.000171	 0.000313	 0.0001	 82782	 82782	 82782	 0	 0	 1	-30	 30;
	 224	 57	 0.004082	 0.012295	 0.0107	 2280	 2280	 2280	 0	 0	 1	-30	 30;
	 80	 57	 0.003956	 0.018569	 0.0074	 1556	 1556	 1556	 0	 0	 1	-30	 30;
	 101	 58	 0.009264	 0.031822	 0.0567	 934	 934	 934	 0	 0	 1	-30	 30;
	 215	 59	 0.023331	 0.055304	 0.0038	 492	 492	 492	 0	 0	 1	-30	 30;
	 216	 60	 0.01037	 0.022222	 0	 1065	 1065	 1065	 0	 0	 1	-30	 30;
	 136	 62	 0.00642	 0.022222	 0	 1129	 1129	 1129	 0	 0	 1	-30	 30;
	 136	 61	 0.014815	 0.03358	 0	 712	 712	 712	 0	 0	 1	-30	 30;
	 131	 63	 0.006954	 0.049307	 0.0161	 596	 596	 596	 0	 0	 1	-30	 30;
	 201	 63	 0.00257	 0.015949	 0.0282	 1829	 1829	 1829	 0	 0	 1	-30	 30;
	 217	 64	 0.001764	 0.003527	 0.0005	 7488	 7488	 7488	 0	 0	 1	-30	 30;
	 147	 65	 0.002469	 0.015319	 0.0271	 1903	 1903	 1903	 0	 0	 1	-30	 30;
	 147	 65	 0.002771	 0.009322	 0.0121	 3036	 3036	 3036	 0	 0	 1	-30	 30;
	 153	 67	 0.000972	 0.012113	 0.1636	 1786	 1786	 1786	 0	 0	 1	-30	 30;
	 219	 68	 4.5e-05	 8.9e-05	 0.0007	 320583	 320583	 320583	 0	 0	 1	-30	 30;
	 106	 69	 0.022676	 0.075082	 0.0009	 377	 377	 377	 0	 0	 1	-30	 30;
	 127	 70	 0.006803	 0.018896	 0.0002	 1471	 1471	 1471	 0	 0	 1	-30	 30;
	 142	 70	 0.003779	 0.009826	 0	 2805	 2805	 2805	 0	 0	 1	-30	 30;
	 145	 70	 0.04006	 0.134039	 0.0021	 212	 212	 212	 0	 0	 1	-30	 30;
	 229	 69	 0.006047	 0.028723	 0	 1006	 1006	 1006	 0	 0	 1	-30	 30;
	 230	 69	 0.006047	 0.016125	 0	 1715	 1715	 1715	 0	 0	 1	-30	 30;
	 232	 69	 0.022928	 0.065508	 0.001	 426	 426	 426	 0	 0	 1	-30	 30;
	 107	 71	 0.001086	 0.00642	 0.0121	 455	 455	 455	 0	 0	 1	-30	 30;
	 117	 71	 0.004464	 0.021452	 0.0385	 1413	 1413	 1413	 0	 0	 1	-30	 30;
	 211	 72	 0.04	 0.088889	 0	 268	 268	 268	 0	 0	 1	-30	 30;
	 113	 73	 0.03477	 0.088183	 0.003	 312	 312	 312	 0	 0	 1	-30	 30;
	 166	 75	 2.5e-05	 0.151172	 0	 196	 196	 196	 0	 0	 1	-30	 30;
	 171	 76	 0.060972	 0.168052	 0.0021	 166	 166	 166	 0	 0	 1	-30	 30;
	 236	 75	 0.03676	 0.081381	 0.0027	 331	 331	 331	 0	 0	 1	-30	 30;
	 166	 74	 2.5e-05	 0.000252	 0	 116592	 116592	 116592	 0	 0	 1	-30	 30;
	 148	 78	 0.00287	 0.017709	 0.0334	 455	 455	 455	 0	 0	 1	-30	 30;
	 221	 77	 0.002015	 0.012879	 0.0243	 2375	 2375	 2375	 0	 0	 1	-30	 30;
	 101	 78	 0.00482	 0.03119	 0.0577	 981	 981	 981	 0	 0	 1	-30	 30;
	 132	 79	 0.001142	 0.014569	 0.3855	 1746	 1746	 1746	 0	 0	 1	-30	 30;
	 180	 80	 0.001008	 0.002771	 0.0021	 10014	 10014	 10014	 0	 0	 1	-30	 30;
	 182	 80	 0.001367	 0.002502	 0.0021	 10356	 10356	 10356	 0	 0	 1	-30	 30;
	 221	 81	 2e-05	 0.000198	 0.003	 155535	 155535	 155535	 0	 0	 1	-30	 30;
	 105	 83	 0.001975	 0.00642	 0.0001	 3887	 3887	 3887	 0	 0	 1	-30	 30;
	 105	 82	 0.001481	 0.004938	 0.0012	 5064	 5064	 5064	 0	 0	 1	-30	 30;
	 164	 84	 0.002761	 0.005054	 0	 4533	 4533	 4533	 0	 0	 1	-30	 30;
	 210	 85	 0.004467	 0.008177	 0	 2802	 2802	 2802	 0	 0	 1	-30	 30;
	 223	 86	 0.010582	 0.066264	 0.0009	 440	 440	 440	 0	 0	 1	-30	 30;
	 242	 86	 0.003527	 0.025699	 0	 1139	 1139	 1139	 0	 0	 1	-30	 30;
	 167	 87	 0.035525	 0.073066	 0.001	 364	 364	 364	 0	 0	 1	-30	 30;
	 212	 87	 0.004787	 0.009574	 0.001	 2759	 2759	 2759	 0	 0	 1	-30	 30;
	 167	 88	 0.006299	 0.028219	 0.0003	 1022	 1022	 1022	 0	 0	 1	-30	 30;
	 118	 90	 0.05291	 0.134291	 0.001	 206	 206	 206	 0	 0	 1	-30	 30;
	 209	 91	 0.018272	 0.041481	 0	 576	 576	 576	 0	 0	 1	-30	 30;
	 235	 91	 0.075062	 0.195556	 0.0012	 125	 125	 125	 0	 0	 1	-30	 30;
	 131	 92	 0.006979	 0.034316	 0.0531	 848	 848	 848	 0	 0	 1	-30	 30;
	 149	 94	 0.046822	 0.085707	 0.0021	 306	 306	 306	 0	 0	 1	-30	 30;
	 222	 97	 0.000504	 0.001008	 0	 26199	 26199	 26199	 0	 0	 1	-30	 30;
	 223	 98	 0.002446	 0.004477	 0	 5788	 5788	 5788	 0	 0	 1	-30	 30;
	 224	 99	 0.001792	 0.00328	 0	 7900	 7900	 7900	 0	 0	 1	-30	 30;
	 187	 100	 0.008314	 0.031494	 0.001	 907	 907	 907	 0	 0	 1	-30	 30;
	 168	 101	 0.003911	 0.01679	 0.0284	 1796	 1796	 1796	 0	 0	 1	-30	 30;
	 221	 101	 0.002785	 0.018153	 0.0334	 1686	 1686	 1686	 0	 0	 1	-30	 30;
	 225	 102	 0.000504	 0.00126	 0	 21757	 21757	 21757	 0	 0	 1	-30	 30;
	 234	 103	 0.036533	 0.159486	 0.0021	 181	 181	 181	 0	 0	 1	-30	 30;
	 111	 105	 0.006914	 0.021235	 0.0013	 1169	 1169	 1169	 0	 0	 1	-30	 30;
	 134	 105	 0.008395	 0.019753	 0.0047	 1217	 1217	 1217	 0	 0	 1	-30	 30;
	 218	 106	 0.008314	 0.028219	 0	 1004	 1004	 1004	 0	 0	 1	-30	 30;
	 223	 106	 0.010078	 0.054926	 0.0021	 529	 529	 529	 0	 0	 1	-30	 30;
	 228	 106	 0.081633	 0.229277	 0.003	 122	 122	 122	 0	 0	 1	-30	 30;
	 227	 108	 0.000988	 0.002469	 0	 9817	 9817	 9817	 0	 0	 1	-30	 30;
	 115	 109	 4e-05	 0.000237	 0	 483	 483	 483	 0	 0	 1	-30	 30;
	 172	 112	 0.02088	 0.03822	 0.0012	 600	 600	 600	 0	 0	 1	-30	 30;
	 226	 112	 0.024296	 0.118963	 0.0004	 216	 216	 216	 0	 0	 1	-30	 30;
	 237	 112	 0.002963	 0.009877	 0.0012	 2532	 2532	 2532	 0	 0	 1	-30	 30;
	 239	 112	 0.051852	 0.13679	 0.0047	 179	 179	 179	 0	 0	 1	-30	 30;
	 219	 114	 0.010444	 0.032756	 0.0103	 930	 930	 930	 0	 0	 1	-30	 30;
	 206	 115	 0.000296	 0.001758	 0.003	 455	 455	 455	 0	 0	 1	-30	 30;
	 245	 115	 0.000356	 0.002054	 0.004	 14849	 14849	 14849	 0	 0	 1	-30	 30;
	 233	 115	 0.006696	 0.029985	 0.0527	 1008	 1008	 1008	 0	 0	 1	-30	 30;
	 198	 116	 0.019728	 0.057546	 0.0029	 486	 486	 486	 0	 0	 1	-30	 30;
	 214	 116	 0.006047	 0.020912	 0	 1357	 1357	 1357	 0	 0	 1	-30	 30;
	 243	 116	 0.011086	 0.057445	 0.0021	 505	 505	 505	 0	 0	 1	-30	 30;
	 138	 117	 0.009067	 0.029116	 0.0486	 1015	 1015	 1015	 0	 0	 1	-30	 30;
	 184	 118	 0.008818	 0.022172	 0	 1249	 1249	 1249	 0	 0	 1	-30	 30;
	 183	 119	 0.056941	 0.143613	 0.0016	 192	 192	 192	 0	 0	 1	-30	 30;
	 137	 120	 0.044973	 0.126127	 0.0015	 221	 221	 221	 0	 0	 1	-30	 30;
	 218	 121	 0.074578	 0.210632	 0.0025	 133	 133	 133	 0	 0	 1	-30	 30;
	 228	 121	 0.000252	 0.000504	 0	 52398	 52398	 52398	 0	 0	 1	-30	 30;
	 180	 122	 0.003527	 0.013354	 0	 2138	 2138	 2138	 0	 0	 1	-30	 30;
	 149	 124	 0.000252	 0.000504	 0.0004	 52985	 52985	 52985	 0	 0	 1	-30	 30;
	 202	 125	 0.032754	 0.09675	 0.001	 290	 290	 290	 0	 0	 1	-30	 30;
	 232	 125	 0.049887	 0.143109	 0.0021	 195	 195	 195	 0	 0	 1	-30	 30;
	 167	 126	 0.021416	 0.054674	 0.001	 503	 503	 503	 0	 0	 1	-30	 30;
	 191	 126	 0.028219	 0.071303	 0.001	 386	 386	 386	 0	 0	 1	-30	 30;
	 136	 130	 0.043457	 0.090864	 0.0011	 260	 260	 260	 0	 0	 1	-30	 30;
	 201	 131	 0.008566	 0.067523	 0.0496	 436	 436	 436	 0	 0	 1	-30	 30;
	 151	 135	 2.8e-05	 0.000172	 0.0243	 455	 455	 455	 0	 0	 1	-30	 30;
	 216	 136	 0.000988	 0.001975	 0	 11822	 11822	 11822	 0	 0	 1	-30	 30;
	 222	 137	 0.010582	 0.028219	 0	 980	 980	 980	 0	 0	 1	-30	 30;
	 148	 138	 0.004573	 0.020316	 0.0405	 1487	 1487	 1487	 0	 0	 1	-30	 30;
	 208	 139	 0.14768	 0.270326	 0.001	 85	 85	 85	 0	 0	 1	-30	 30;
	 230	 143	 0.001008	 0.002771	 0	 10014	 10014	 10014	 0	 0	 1	-30	 30;
	 220	 145	 0.000252	 0.001008	 0	 28417	 28417	 28417	 0	 0	 1	-30	 30;
...
];

mpc_regionR1.gencost = [
%	2           startup     shutdown    n           c(n-1)...c0 
	 2	 0	 0	 3	 0	 110.534362	 0;
	 2	 0	 0	 3	 0	 23.10228	 0;
	 2	 0	 0	 3	 0	 119.383923	 0;
	 2	 0	 0	 3	 0	 117.684672	 0;
	 2	 0	 0	 3	 0	 20.546339	 0;
	 2	 0	 0	 3	 0	 108.737407	 0;
	 2	 0	 0	 3	 0	 13.090251	 0;
	 2	 0	 0	 3	 0	 41.889085	 0;
	 2	 0	 0	 3	 0	 14.142931	 0;
	 2	 0	 0	 3	 0	 38.557329	 0;
	 2	 0	 0	 3	 0	 30.508318	 0;
	 2	 0	 0	 3	 0	 34.527934	 0;
	 2	 0	 0	 3	 0	 44.619678	 0;
	 2	 0	 0	 3	 0	 25.637584	 0;
	 2	 0	 0	 3	 0	 23.309066	 0;
	 2	 0	 0	 3	 0	 12.517429	 0;
	 2	 0	 0	 3	 0	 38.11896	 0;
	 2	 0	 0	 3	 0	 38.662547	 0;
	 2	 0	 0	 3	 0	 31.577134	 0;
	 2	 0	 0	 3	 0	 99.252137	 0;
	 2	 0	 0	 3	 0	 115.910524	 0;
	 2	 0	 0	 3	 0	 37.955969	 0;
	 2	 0	 0	 3	 0	 32.236783	 0;
	 2	 0	 0	 3	 0	 40.297021	 0;
	 2	 0	 0	 3	 0	 27.686941	 0;
	 2	 0	 0	 3	 0	 117.901162	 0;
	 2	 0	 0	 3	 0	 54.841088	 0;
	 2	 0	 0	 3	 0	 30.576408	 0;
	 2	 0	 0	 3	 0	 39.825147	 0;
	 2	 0	 0	 3	 0	 22.980423	 0;
	 2	 0	 0	 3	 0	 10.717751	 0;
	 2	 0	 0	 3	 0	 25.834701	 0;
	 2	 0	 0	 3	 0	 116.028667	 0;
	 2	 0	 0	 3	 0	 47.345438	 0;
	 2	 0	 0	 3	 0	 35.476441	 0;
	 2	 0	 0	 3	 0	 32.165461	 0;
	 2	 0	 0	 3	 0	 109.010335	 0;
	 2	 0	 0	 3	 0	 104.371813	 0;
	 2	 0	 0	 3	 0	 28.108838	 0;
	 2	 0	 0	 3	 0	 107.673694	 0;
	 2	 0	 0	 3	 0	 95.643604	 0;
	 2	 0	 0	 3	 0	 105.01827	 0;
	 2	 0	 0	 3	 0	 46.555422	 0;
	 2	 0	 0	 3	 0	 25.083008	 0;
	 2	 0	 0	 3	 0	 39.479616	 0;
	 2	 0	 0	 3	 0	 28.216681	 0;
	 2	 0	 0	 3	 0	 31.014707	 0;
	 2	 0	 0	 3	 0	 124.539115	 0;
	 2	 0	 0	 3	 0	 37.400048	 0;
	 2	 0	 0	 3	 0	 35.339754	 0;
	 2	 0	 0	 3	 0	 28.669472	 0;
	 2	 0	 0	 3	 0	 20.964214	 0;
	 2	 0	 0	 3	 0	 31.766161	 0;
	 2	 0	 0	 3	 0	 25.034837	 0;
	 2	 0	 0	 3	 0	 103.350123	 0;
	 2	 0	 0	 3	 0	 61.088571	 0;
	 2	 0	 0	 3	 0	 105.540836	 0;
	 2	 0	 0	 3	 0	 123.376271	 0;
	 2	 0	 0	 3	 0	 100.760411	 0;
	 2	 0	 0	 3	 0	 18.859579	 0;
	 2	 0	 0	 3	 0	 26.109417	 0;
	 2	 0	 0	 3	 0	 25.697586	 0;
	 2	 0	 0	 3	 0	 30.027809	 0;
	 2	 0	 0	 3	 0	 21.45659	 0;
	 2	 0	 0	 3	 0	 30.041452	 0;
	 2	 0	 0	 3	 0	 20.068319	 0;
	 2	 0	 0	 3	 0	 18.55211	 0;
	 2	 0	 0	 3	 0	 13.453609	 0;
	 2	 0	 0	 3	 0	 19.099593	 0;
	 2	 0	 0	 3	 0	 31.493996	 0;
	 2	 0	 0	 3	 0	 26.90571	 0;
	 2	 0	 0	 3	 0	 0	 0;
	 2	 0	 0	 3	 0	 0	 0;
	 2	 0	 0	 3	 0	 0	 0;
	 2	 0	 0	 3	 0	 12.70747	 0;
	 2	 0	 0	 3	 0	 0	 0;
	 2	 0	 0	 3	 0	 0	 0;
	 2	 0	 0	 3	 0	 35.676888	 0;
	 2	 0	 0	 3	 0	 42.635448	 0;
	 2	 0	 0	 3	 0	 51.845962	 0;
	 2	 0	 0	 3	 0	 34.703497	 0;
	 2	 0	 0	 3	 0	 29.674062	 0;
	 2	 0	 0	 3	 0	 38.467647	 0;
	 2	 0	 0	 3	 0	 0	 0;
	 2	 0	 0	 3	 0	 0	 0;
	 2	 0	 0	 3	 0	 44.802666	 0;
	 2	 0	 0	 3	 0	 34.76843	 0;
	 2	 0	 0	 3	 0	 0	 0;
	 2	 0	 0	 3	 0	 0	 0;
	 2	 0	 0	 3	 0	 0	 0;
	 2	 0	 0	 3	 0	 54.009622	 0;
	 2	 0	 0	 3	 0	 24.827357	 0;
	 2	 0	 0	 3	 0	 21.191751	 0;
	 2	 0	 0	 3	 0	 57.289122	 0;
	 2	 0	 0	 3	 0	 38.321189	 0;
	 2	 0	 0	 3	 0	 45.151707	 0;
	 2	 0	 0	 3	 0	 0	 0;
	 2	 0	 0	 3	 0	 36.132854	 0;
	 2	 0	 0	 3	 0	 25.924845	 0;
	 2	 0	 0	 3	 0	 39.337369	 0;
	 2	 0	 0	 3	 0	 15.186058	 0;
	 2	 0	 0	 3	 0	 39.907973	 0;
	 2	 0	 0	 3	 0	 113.707515	 0;
	 2	 0	 0	 3	 0	 47.413205	 0;
	 2	 0	 0	 3	 0	 0	 0;
	 2	 0	 0	 3	 0	 0	 0;
	 2	 0	 0	 3	 0	 0.587641	 0;
	 2	 0	 0	 3	 0	 51.701533	 0;
	 2	 0	 0	 3	 0	 39.393458	 0;
	 2	 0	 0	 3	 0	 31.79773	 0;
	 2	 0	 0	 3	 0	 28.606022	 0;
	 2	 0	 0	 3	 0	 32.009963	 0;
	 2	 0	 0	 3	 0	 115.333964	 0;
	 2	 0	 0	 3	 0	 39.505741	 0;
	 2	 0	 0	 3	 0	 21.440936	 0;
	 2	 0	 0	 3	 0	 115.238704	 0;
	 2	 0	 0	 3	 0	 32.473768	 0;
	 2	 0	 0	 3	 0	 115.869894	 0;
	 2	 0	 0	 3	 0	 37.453559	 0;
	 2	 0	 0	 3	 0	 34.587347	 0;
	 2	 0	 0	 3	 0	 26.448707	 0;
];


% -------------------- mpc_regionR2 --------------------

mpc_regionR2.version = '2';
mpc_regionR2.baseMVA = 100.0000;
mpc_regionR2.bus = [
%	bus_i       type        Pd          Qd          Gs          Bs          area        Vm          Va          baseKV      zone        Vmax        Vmin        
	 1	 1	 24.67	 4.7	 0	 0	 1	 1.02222	 0	 90	 1	 1.06667	 0.97778;
	 2	 1	 0	 0	 0	 0	 1	 1.04444	 0	 225	 1	 1.08444	 1.00444;
	 3	 1	 3.61	 2.1	 0	 0	 1	 1.02222	 0	 90	 1	 1.06667	 0.97778;
	 4	 1	 6.98	 2.5	 0	 0	 1	 1.02222	 0	 90	 1	 1.06667	 0.97778;
	 5	 1	 45.73	 3.8	 0	 0	 1	 1.02222	 0	 90	 1	 1.06667	 0.97778;
	 6	 1	 21.54	 5.1	 0	 0	 1	 1.02222	 0	 90	 1	 1.06667	 0.97778;
	 7	 1	 11.3	-3.9	 0	 0	 1	 0.975	 0	 20	 1	 1.15	 0.8;
	 8	 1	 6.98	 1.4	 0	 0	 1	 1.02222	 0	 90	 1	 1.06667	 0.97778;
	 9	 1	 7.8	-0.9	 0	 0	 1	 1.02222	 0	 90	 1	 1.06667	 0.97778;
	 10	 1	 0	 0	 0	 0	 1	 1.04543	 0	 225	 1	 1.08642	 1.00444;
	 11	 1	 11.31	 0.4	 0	 0	 1	 1.02222	 0	 90	 1	 1.06667	 0.97778;
	 12	 1	 23.5	-0.6	 0	 0	 1	 1.02222	 0	 90	 1	 1.06667	 0.97778;
	 13	 1	 6.74	 0.3	 0	 0	 1	 1.02222	 0	 90	 1	 1.06667	 0.97778;
	 14	 1	 0	 0	 0	 0	 1	 1.04556	 0	 225	 1	 1.08668	 1.00444;
	 15	 1	 0	 0	 0	 0	 1	 1.07237	 0	 380	 1	 1.10263	 1.04211;
	 16	 1	 4.69	 3.2	 0	 0	 1	 1.02222	 0	 90	 1	 1.06667	 0.97778;
	 17	 1	 0.6	 3.1	 0	 0	 1	 1.04549	 0	 225	 1	 1.08655	 1.00444;
	 18	 1	 6.2	-1.4	 0	 0	 1	 1.02222	 0	 90	 1	 1.06667	 0.97778;
	 19	 1	 16.3	-5.4	 0	 0	 1	 1.02222	 0	 90	 1	 1.06667	 0.97778;
	 20	 1	 8.1	-1	 0	 0	 1	 1.02222	 0	 90	 1	 1.06667	 0.97778;
	 21	 1	 5.66	 0.5	 0	 0	 1	 1.02222	 0	 90	 1	 1.06667	 0.97778;
	 22	 1	 0.6	 0.3	 0	 0	 1	 1.02222	 0	 90	 1	 1.06667	 0.97778;
	 23	 1	 18.5	-2.2	 0	 0	 1	 1.02222	 0	 90	 1	 1.06667	 0.97778;
	 24	 1	 38.4	-2.5	 0	 0	 1	 1.02222	 0	 90	 1	 1.06667	 0.97778;
	 25	 1	 6	-2.1	 0	 0	 1	 1.02222	 0	 90	 1	 1.06667	 0.97778;
	 26	 1	 8.54	 0.1	 0	 0	 1	 1.02222	 0	 90	 1	 1.06667	 0.97778;
	 27	 1	 31.3	-0.6	 0	 0	 1	 1.02222	 0	 90	 1	 1.06667	 0.97778;
	 28	 1	 0	 0	 0	 0	 1	 1.02422	 0	 90	 1	 1.07067	 0.97778;
	 29	 1	 0	 0	 0	 0	 1	 1.04444	 0	 225	 1	 1.08444	 1.00444;
	 30	 1	 14	-1.7	 0	 0	 1	 1.02222	 0	 90	 1	 1.06667	 0.97778;
	 31	 1	 39.11	 5	 0	 0	 1	 1.02222	 0	 90	 1	 1.06667	 0.97778;
	 32	 1	 0	 0	 0	 0	 1	 1.02222	 0	 90	 1	 1.06667	 0.97778;
	 33	 1	 0	 0	 0	 0	 1	 1.04444	 0	 225	 1	 1.08444	 1.00444;
	 34	 1	 22.14	 0.2	 0	 0	 1	 1.02222	 0	 90	 1	 1.06667	 0.97778;
	 35	 1	 24.07	 1.4	 0	 0	 1	 1.02222	 0	 90	 1	 1.06667	 0.97778;
	 36	 1	 10	-4.5	 0	 0	 1	 1.02222	 0	 90	 1	 1.06667	 0.97778;
	 37	 2	 13.24	 3.8	 0	 0	 1	 1.02222	 0	 90	 1	 1.06667	 0.97778;
	 38	 1	 1.68	 0.1	 0	 0	 1	 1.02222	 0	 90	 1	 1.06667	 0.97778;
	 39	 1	 12.28	 0.6	 0	 0	 1	 1.02222	 0	 90	 1	 1.06667	 0.97778;
	 40	 1	 0	 0	 0	 0	 1	 1.02222	 0	 90	 1	 1.06667	 0.97778;
	 41	 1	 0	 0	 0	 0	 1	 1.07237	 0	 380	 1	 1.10263	 1.04211;
	 42	 1	 52.35	 6.8	 0	 0	 1	 1.02222	 0	 90	 1	 1.06667	 0.97778;
	 43	 1	 27.2	-2.6	 0	 0	 1	 1.02222	 0	 90	 1	 1.06667	 0.97778;
	 44	 1	 9	-2.9	 0	 0	 1	 1.02222	 0	 90	 1	 1.06667	 0.97778;
	 45	 1	 0	-7.8	 0	 0	 1	 1.02222	 0	 90	 1	 1.06667	 0.97778;
	 46	 1	 0	 0	 0	 0	 1	 1.07237	 0	 380	 1	 1.10263	 1.04211;
	 47	 1	 18.9	-2.1	 0	 0	 1	 1.02222	 0	 90	 1	 1.06667	 0.97778;
	 48	 1	 12	-0.3	 0	 0	 1	 1.02222	 0	 90	 1	 1.06667	 0.97778;
	 49	 1	 0	 0	 0	 0	 1	 1.07237	 0	 380	 1	 1.10263	 1.04211;
	 50	 1	 0	 0	 0	 0	 1	 1.07237	 0	 380	 1	 1.10263	 1.04211;
	 51	 1	 18.7	-5.3	 0	 0	 1	 1.02222	 0	 90	 1	 1.06667	 0.97778;
	 52	 1	 43.56	 0.4	 0	 0	 1	 1.02222	 0	 90	 1	 1.06667	 0.97778;
	 53	 1	 35	-3.7	 0	 0	 1	 1.02222	 0	 90	 1	 1.06667	 0.97778;
	 54	 1	 0	 0	 0	 0	 1	 1.02222	 0	 90	 1	 1.06667	 0.97778;
	 55	 1	 0	 0	 0	 0	 1	 1.04444	 0	 225	 1	 1.08444	 1.00444;
	 56	 1	 15.2	-0.7	 0	 0	 1	 1.02222	 0	 90	 1	 1.06667	 0.97778;
	 57	 1	 32.97	 3.4	 0	 0	 1	 1.02222	 0	 90	 1	 1.06667	 0.97778;
	 58	 1	 13.6	 12.7	 0	 0	 1	 1.02222	 0	 90	 1	 1.06667	 0.97778;
	 59	 1	 41.76	 0.2	 0	 0	 1	 1.02222	 0	 90	 1	 1.06667	 0.97778;
	 60	 1	 0	 0.2	 0	 0	 1	 1.02222	 0	 90	 1	 1.06667	 0.97778;
	 61	 1	 6	-0.8	 0	 0	 1	 1.02222	 0	 90	 1	 1.06667	 0.97778;
	 62	 1	 1.56	 0.8	 0	 0	 1	 1.02222	 0	 90	 1	 1.06667	 0.97778;
	 63	 1	 0.24	 0.6	 0	 0	 1	 1.02222	 0	 90	 1	 1.06667	 0.97778;
	 64	 1	 38.27	 0.4	 0	 0	 1	 0.975	 0	 20	 1	 1.15	 0.8;
	 65	 1	 14.7	-1.9	 0	 0	 1	 1.02222	 0	 90	 1	 1.06667	 0.97778;
	 66	 1	 0	 0	 0	 0	 1	 1.04494	 0	 225	 1	 1.08544	 1.00444;
	 67	 1	 33.46	 3.1	 0	 0	 1	 1.02222	 0	 90	 1	 1.06667	 0.97778;
	 68	 1	 23.95	 0.9	 0	 0	 1	 1.02222	 0	 90	 1	 1.06667	 0.97778;
	 69	 1	 19.13	 1.7	 0	 0	 1	 1.02222	 0	 90	 1	 1.06667	 0.97778;
	 70	 1	 13.24	 5.1	 0	 0	 1	 1.02222	 0	 90	 1	 1.06667	 0.97778;
	 71	 1	 0	 0	 0	 0	 1	 1.02222	 0	 90	 1	 1.06667	 0.97778;
	 72	 1	 0	 0	 0	 0	 1	 1.04448	 0	 225	 1	 1.08451	 1.00444;
	 73	 1	 0	 0	 0	 0	 1	 1.07237	 0	 380	 1	 1.10263	 1.04211;
	 74	 1	 20.94	 1.7	 0	 0	 1	 1.02222	 0	 90	 1	 1.06667	 0.97778;
	 75	 1	 22.6	-0.5	 0	 0	 1	 1.02222	 0	 90	 1	 1.06667	 0.97778;
	 76	 1	 2.77	 1.5	 0	 0	 1	 1.02222	 0	 90	 1	 1.06667	 0.97778;
	 77	 1	 23.35	 2.7	 0	 0	 1	 1.02222	 0	 90	 1	 1.06667	 0.97778;
	 78	 1	 1.7	-0.8	 0	 0	 1	 1.02222	 0	 90	 1	 1.06667	 0.97778;
	 79	 1	 30.6	-10.5	 0	 0	 1	 1.02222	 0	 90	 1	 1.06667	 0.97778;
	 80	 1	 21	-3	 0	 0	 1	 1.02222	 0	 90	 1	 1.06667	 0.97778;
	 81	 1	 30.93	 1.7	 0	 0	 1	 1.02222	 0	 90	 1	 1.06667	 0.97778;
	 82	 1	 26.48	 2.9	 0	 0	 1	 1.02222	 0	 90	 1	 1.06667	 0.97778;
	 83	 1	 7.8	-1.3	 0	 0	 1	 1.02222	 0	 90	 1	 1.06667	 0.97778;
	 84	 1	 6	-0.5	 0	 0	 1	 1.02222	 0	 90	 1	 1.06667	 0.97778;
	 85	 1	 15	-1	 0	 0	 1	 1.02222	 0	 90	 1	 1.06667	 0.97778;
	 86	 1	 28.7	-1.6	 0	 0	 1	 1.02222	 0	 90	 1	 1.06667	 0.97778;
	 87	 1	 12.1	-1.6	 0	 0	 1	 1.02222	 0	 90	 1	 1.06667	 0.97778;
	 88	 1	-1.4	 0.1	 0	 0	 1	 1.02222	 0	 90	 1	 1.06667	 0.97778;
	 89	 1	 10.35	 0.2	 0	 0	 1	 1.02222	 0	 90	 1	 1.06667	 0.97778;
	 90	 1	 24.1	-4.3	 0	 0	 1	 1.02222	 0	 90	 1	 1.06667	 0.97778;
	 91	 1	 0	 0	 0	 0	 1	 1.02222	 0	 90	 1	 1.06667	 0.97778;
	 92	 1	 0	 0	 0	 0	 1	 1.02222	 0	 90	 1	 1.06667	 0.97778;
	 93	 1	 9.1	-1.2	 0	 0	 1	 1.02222	 0	 90	 1	 1.06667	 0.97778;
	 94	 1	 4.1	-0.9	 0	 0	 1	 1.02222	 0	 90	 1	 1.06667	 0.97778;
	 95	 1	 0	 0	 0	 0	 1	 1.04444	 0	 225	 1	 1.08444	 1.00444;
	 96	 1	 0	 0	 0	 0	 1	 1.07237	 0	 380	 1	 1.10263	 1.04211;
	 97	 1	 0	 0	 0	 0	 1	 1.07237	 0	 380	 1	 1.10263	 1.04211;
	 98	 1	 23.7	-0.5	 0	 0	 1	 1.02222	 0	 90	 1	 1.06667	 0.97778;
	 99	 1	 30.9	-5.2	 0	 0	 1	 1.02222	 0	 90	 1	 1.06667	 0.97778;
	 100	 1	 0	 0	 0	 0	 1	 1.02222	 0	 90	 1	 1.06667	 0.97778;
	 101	 1	 0	 0	 0	 0	 1	 1.07237	 0	 380	 1	 1.10263	 1.04211;
	 102	 1	 0	 0	 0	 0	 1	 1.07369	 0	 380	 1	 1.10526	 1.04211;
	 103	 1	 53.31	 6.1	 0	 63	 1	 1.02222	 0	 90	 1	 1.06667	 0.97778;
	 104	 1	 0	 0	 0	 0	 1	 1.02222	 0	 90	 1	 1.06667	 0.97778;
	 105	 1	 0	 0	 0	 0	 1	 1.04444	 0	 225	 1	 1.08444	 1.00444;
	 106	 1	 3	-4.7	 0	 0	 1	 1.02222	 0	 90	 1	 1.06667	 0.97778;
	 107	 1	-0.3	-0.3	 0	 0	 1	 1.02222	 0	 90	 1	 1.06667	 0.97778;
	 108	 1	 26.1	-6.4	 0	 0	 1	 1.02222	 0	 90	 1	 1.06667	 0.97778;
	 109	 1	 28.4	 4.2	 0	 0	 1	 1.02222	 0	 90	 1	 1.06667	 0.97778;
	 110	 1	 21.8	-6.7	 0	 0	 1	 1.02222	 0	 90	 1	 1.06667	 0.97778;
	 111	 1	 20.7	 1.4	 0	 0	 1	 1.02222	 0	 90	 1	 1.06667	 0.97778;
	 112	 1	 12.28	 1.7	 0	 0	 1	 1.02222	 0	 90	 1	 1.06667	 0.97778;
	 113	 1	 60.17	 4.6	 0	 0	 1	 1.02222	 0	 90	 1	 1.06667	 0.97778;
	 114	 1	 24.67	 1.4	 0	 0	 1	 1.02222	 0	 90	 1	 1.06667	 0.97778;
	 115	 1	 7.82	 0.3	 0	 0	 1	 1.02222	 0	 90	 1	 1.06667	 0.97778;
	 116	 1	 20.34	 2.2	 0	 0	 1	 1.02222	 0	 90	 1	 1.06667	 0.97778;
	 117	 1	 19.01	 0.6	 0	 0	 1	 1.02222	 0	 90	 1	 1.06667	 0.97778;
	 118	 1	 0	 0	 0	 0	 1	 1.02222	 0	 90	 1	 1.06667	 0.97778;
	 119	 1	 0	 0	 0	 0	 1	 1.07237	 0	 380	 1	 1.10263	 1.04211;
	 120	 1	 11.9	-2.6	 0	 0	 1	 1.02222	 0	 90	 1	 1.06667	 0.97778;
	 121	 1	 12.8	-6.5	 0	 0	 1	 1.02222	 0	 90	 1	 1.06667	 0.97778;
	 122	 1	 25	-4.3	 0	 0	 1	 1.02222	 0	 90	 1	 1.06667	 0.97778;
	 123	 1	 17.81	 0.1	 0	 0	 1	 1.02222	 0	 90	 1	 1.06667	 0.97778;
	 124	 1	 11.07	 0.8	 0	 0	 1	 1.02222	 0	 90	 1	 1.06667	 0.97778;
	 125	 1	 1.5	-0.2	 0	 0	 1	 1.04622	 0	 225	 1	 1.08801	 1.00444;
	 126	 1	 1.5	-0.3	 0	 0	 1	 1.04622	 0	 225	 1	 1.08801	 1.00444;
	 127	 1	 45.37	 0.9	 0	 0	 1	 1.02222	 0	 90	 1	 1.06667	 0.97778;
	 128	 1	 55.9	-8.1	 0	 0	 1	 1.02222	 0	 90	 1	 1.06667	 0.97778;
	 129	 1	-21.7	 15.1	 0	 0	 1	 1.07237	 0	 380	 1	 1.10263	 1.04211;
	 130	 1	 15.9	-0.4	 0	 0	 1	 1.02222	 0	 90	 1	 1.06667	 0.97778;
	 131	 1	 20.4	-6.1	 0	 0	 1	 1.02222	 0	 90	 1	 1.06667	 0.97778;
	 132	 1	 40	-2	 0	 0	 1	 1.02222	 0	 90	 1	 1.06667	 0.97778;
	 133	 1	 10.11	 1.3	 0	 0	 1	 1.02222	 0	 90	 1	 1.06667	 0.97778;
	 134	 1	 1.2	 0.8	 0	 0	 1	 1.02222	 0	 90	 1	 1.06667	 0.97778;
	 135	 1	 0	 0	 0	 0	 1	 1.02222	 0	 90	 1	 1.06667	 0.97778;
	 136	 1	 23.23	 3	 0	 0	 1	 1.02222	 0	 90	 1	 1.06667	 0.97778;
	 137	 1	 0	 0	 0	 0	 1	 1.04591	 0	 225	 1	 1.08738	 1.00444;
	 138	 1	 0	 0	 0	 0	 1	 1.07237	 0	 380	 1	 1.10263	 1.04211;
	 139	 1	 10.8	-7.4	 0	 0	 1	 1.03124	 0	 90	 1	 1.0847	 0.97778;
	 140	 1	 43.08	 13.7	 0	 0	 1	 1.02222	 0	 90	 1	 1.06667	 0.97778;
	 141	 1	 27.4	-1.1	 0	 0	 1	 1.02222	 0	 90	 1	 1.06667	 0.97778;
	 142	 1	 23.83	 4.6	 0	 0	 1	 1.02222	 0	 90	 1	 1.06667	 0.97778;
	 143	 1	 41.5	-7.6	 0	 0	 1	 1.02222	 0	 90	 1	 1.06667	 0.97778;
	 144	 1	 25.3	-0.9	 0	 0	 1	 1.02222	 0	 90	 1	 1.06667	 0.97778;
	 145	 1	 13.2	-3.4	 0	 0	 1	 1.02222	 0	 90	 1	 1.06667	 0.97778;
	 146	 1	 10.9	-0.8	 0	 0	 1	 1.02222	 0	 90	 1	 1.06667	 0.97778;
	 147	 1	 32.73	 1.5	 0	 0	 1	 1.02222	 0	 90	 1	 1.06667	 0.97778;
	 148	 1	 12.03	 4.1	 0	 0	 1	 1.02222	 0	 90	 1	 1.06667	 0.97778;
	 149	 1	 27.8	 2.1	 0	 0	 1	 1.02222	 0	 90	 1	 1.06667	 0.97778;
	 150	 1	 26.3	-3.5	 0	 0	 1	 1.02222	 0	 90	 1	 1.06667	 0.97778;
	 151	 1	 12.4	 1.6	 0	 0	 1	 1.02222	 0	 90	 1	 1.06667	 0.97778;
	 152	 1	 17.7	-1.1	 0	 0	 1	 0.975	 0	 20	 1	 1.15	 0.8;
	 153	 1	-0.6	 0.3	 0	 0	 1	 1.02222	 0	 90	 1	 1.06667	 0.97778;
	 154	 1	 6.5	 0.3	 0	 0	 1	 1.02222	 0	 90	 1	 1.06667	 0.97778;
	 155	 1	 0	 0	 0	 0	 1	 1.04444	 0	 225	 1	 1.08444	 1.00444;
	 156	 1	 19.1	-1.5	 0	 0	 1	 1.02222	 0	 90	 1	 1.06667	 0.97778;
	 157	 1	 0	 0	 0	 0	 1	 1.04606	 0	 225	 1	 1.08768	 1.00444;
	 158	 1	 0.5	-0.5	 0	 0	 1	 1.02222	 0	 90	 1	 1.06667	 0.97778;
	 159	 1	 1.9	-2.5	 0	 0	 1	 1.02222	 0	 90	 1	 1.06667	 0.97778;
	 160	 1	 43.56	 3.4	 0	 0	 1	 1.02222	 0	 90	 1	 1.06667	 0.97778;
	 161	 1	 25.03	 3.1	 0	 0	 1	 1.02222	 0	 90	 1	 1.06667	 0.97778;
	 162	 1	 2.6	-0.4	 0	 0	 1	 1.02222	 0	 90	 1	 1.06667	 0.97778;
	 163	 1	 23.95	 0.6	 0	 0	 1	 1.02222	 0	 90	 1	 1.06667	 0.97778;
	 164	 1	 0.9	-0.3	 0	 0	 1	 1.02222	 0	 90	 1	 1.06667	 0.97778;
	 165	 1	 17.3	-5	 0	 0	 1	 1.02222	 0	 90	 1	 1.06667	 0.97778;
	 166	 1	 9	-0.4	 0	 0	 1	 1.02222	 0	 90	 1	 1.06667	 0.97778;
	 167	 1	 0	 1.3	 0	 0	 1	 1.02222	 0	 90	 1	 1.06667	 0.97778;
	 168	 1	 24.31	 4.3	 0	 0	 1	 1.02222	 0	 90	 1	 1.06667	 0.97778;
	 169	 1	 37.31	 4.8	 0	 0	 1	 1.02222	 0	 90	 1	 1.06667	 0.97778;
	 170	 1	 37.7	-10.5	 0	 0	 1	 1.02222	 0	 90	 1	 1.06667	 0.97778;
	 171	 1	 18.05	 2.4	 0	 0	 1	 1.02222	 0	 90	 1	 1.06667	 0.97778;
	 172	 1	-0.7	-1	 0	 0	 1	 1.02222	 0	 90	 1	 1.06667	 0.97778;
	 173	 1	 0	 0	 0	 0	 1	 1.0256	 0	 90	 1	 1.07343	 0.97778;
	 174	 1	 34.6	-6	 0	 0	 1	 1.02222	 0	 90	 1	 1.06667	 0.97778;
	 175	 1	 14.8	 1.7	 0	 0	 1	 1.02222	 0	 90	 1	 1.06667	 0.97778;
	 176	 1	 25.27	 1.8	 0	 0	 1	 1.02222	 0	 90	 1	 1.06667	 0.97778;
	 177	 1	 45.25	 7.4	 0	 0	 1	 1.02222	 0	 90	 1	 1.06667	 0.97778;
	 178	 1	 56.8	 6.2	 0	 0	 1	 1.02222	 0	 90	 1	 1.06667	 0.97778;
	 179	 1	 0	 0	 0	 0	 1	 1.02222	 0	 90	 1	 1.06667	 0.97778;
	 180	 1	 0	 0	 0	 0	 1	 1.07237	 0	 380	 1	 1.10263	 1.04211;
	 181	 1	 0	 0	 0	 0	 1	 1.07237	 0	 380	 1	 1.10263	 1.04211;
	 182	 1	 5.05	 2	 0	 0	 1	 1.02222	 0	 90	 1	 1.06667	 0.97778;
	 183	 1	-0.4	-0.1	 0	 0	 1	 1.02222	 0	 90	 1	 1.06667	 0.97778;
	 184	 1	 1.2	-1.1	 0	 0	 1	 1.02222	 0	 90	 1	 1.06667	 0.97778;
	 185	 1	 0.3	-0.3	 0	 0	 1	 1.02222	 0	 90	 1	 1.06667	 0.97778;
	 186	 1	 0	 0	 0	 0	 1	 1.02222	 0	 90	 1	 1.06667	 0.97778;
	 187	 1	 0	 0	 0	 0	 1	 1.04515	 0	 225	 1	 1.08586	 1.00444;
	 188	 1	 0	 0	 0	 0	 1	 1.02222	 0	 90	 1	 1.06667	 0.97778;
	 189	 1	 0	 0	 0	 0	 1	 1.02222	 0	 90	 1	 1.06667	 0.97778;
	 190	 1	 0	 0	 0	 0	 1	 1.02222	 0	 90	 1	 1.06667	 0.97778;
	 191	 1	 0	 0	 0	 0	 1	 1.02222	 0	 90	 1	 1.06667	 0.97778;
	 192	 1	 0	 0	 0	 0	 1	 1.02222	 0	 90	 1	 1.06667	 0.97778;
	 193	 1	 0	 0	 0	 0	 1	 1.02222	 0	 90	 1	 1.06667	 0.97778;
	 194	 1	 0	 0	 0	 0	 1	 1.02222	 0	 90	 1	 1.06667	 0.97778;
	 195	 1	 0	 0	 0	 0	 1	 1.02222	 0	 90	 1	 1.06667	 0.97778;
	 196	 1	 0	 0	 0	 0	 1	 1.04444	 0	 225	 1	 1.08444	 1.00444;
	 197	 1	 0	 0	 0	 0	 1	 1.02222	 0	 90	 1	 1.06667	 0.97778;
	 198	 1	 0	 0	 0	 0	 1	 1.02552	 0	 90	 1	 1.07326	 0.97778;
	 199	 1	 0	 0	 0	 0	 1	 1.02222	 0	 90	 1	 1.06667	 0.97778;
	 200	 1	 0	 0	 0	 0	 1	 1.04444	 0	 225	 1	 1.08444	 1.00444;
...
];

mpc_regionR2.gen = [
%	bus         Pg          Qg          Qmax        Qmin        Vg          mBase       status      Pmax        Pmin        Pc1         Pc2         Qc1min      Qc1max      Qc2min      Qc2max      ramp_agc    ramp_10     ramp_30     ramp_q      apf         
	 12	 0	 0	 39	-39	 1.02222	 100	 0	 78	 0;
	 27	 0	 0	 29	-29	 1.02222	 100	 0	 57	 0;
	 27	 0	 0	 311	-311	 1.02222	 100	 0	 621	 0;
	 27	 0	 0	 196	-196	 1.02222	 100	 0	 391	 0;
	 30	 0	 0	 17	-17	 1.02222	 100	 0	 34	 0;
	 37	 109.25	 0	 109	-109	 1.02222	 100	 1	 218	 0.5;
	 84	 0	 0	 77	-77	 1.02222	 100	 0	 154	 0;
	 113	 0	 0	 0	 0	 1.02222	 100	 0	 0	 0;
	 115	 0	 0	 3	-3	 1.02222	 100	 0	 6	 0;
	 127	 0	 0	 14	-14	 1.02222	 100	 0	 28	 0;
	 139	 73	 0	 73	-73	 1.03124	 100	 1	 146	 0;
	 224	 508.28	 29.185	 508.37	-450	 0.975	 100	 1	 900	 116.56;
	 225	 428.7875	 85.81	 540.62	-369	 0.975	 100	 1	 737	 120.575;
	 226	 598.5375	 10.47	 559.94	-539	 0.975	 100	 1	 1077	 120.075;
];

mpc_regionR2.branch = [
%	fbus        tbus        r           x           b           rateA       rateB       rateC       ratio       angle       status      angmin      angmax      
	 27	 1	 0.034321	 0.145802	 0.0073	 199	 199	 199	 0	 0	 1	-30	 30;
	 85	 1	 0.004815	 0.009753	 0.0005	 2731	 2731	 2731	 0	 0	 1	-30	 30;
	 110	 1	 0.049012	 0.133704	 0.0063	 209	 209	 209	 0	 0	 1	-30	 30;
	 117	 1	 0.04642	 0.126543	 0.0058	 221	 221	 221	 0	 0	 1	-30	 30;
	 127	 1	 0.046296	 0.125926	 0.006	 222	 222	 222	 0	 0	 1	-30	 30;
	 169	 1	 0.053704	 0.136753	 0.0065	 203	 203	 203	 0	 0	 1	-30	 30;
	 117	 1	 0.03358	 0.120988	 0.0062	 237	 237	 237	 0	 0	 1	-30	 30;
	 95	 2	 0.000652	 0.004369	 0.0081	 558	 558	 558	 0	 0	 1	-30	 30;
	 186	 3	 0.000247	 0.000741	 0	 38027	 38027	 38027	 0	 0	 1	-30	 30;
	 8	 4	 0.01284	 0.032716	 0.0015	 846	 846	 846	 0	 0	 1	-30	 30;
	 206	 4	 0.014198	 0.036049	 0.0016	 767	 767	 767	 0	 0	 1	-30	 30;
	 18	 5	 0.012099	 0.030864	 0.0047	 896	 896	 896	 0	 0	 1	-30	 30;
	 54	 5	 0.013704	 0.034444	 0.003	 802	 802	 802	 0	 0	 1	-30	 30;
	 213	 5	 0.005679	 0.014198	 0.0023	 1943	 1943	 1943	 0	 0	 1	-30	 30;
	 156	 6	 0.022222	 0.060124	 0.0029	 464	 464	 464	 0	 0	 1	-30	 30;
	 65	 9	 0.03642	 0.095185	 0.0045	 292	 292	 292	 0	 0	 1	-30	 30;
	 75	 9	 0.014938	 0.061852	 0.0046	 467	 467	 467	 0	 0	 1	-30	 30;
	 135	 9	 0.043951	 0.11642	 0.007	 239	 239	 239	 0	 0	 1	-30	 30;
	 140	 8	 0.014815	 0.033457	 0.0015	 812	 812	 812	 0	 0	 1	-30	 30;
	 148	 8	 0.004198	 0.010741	 0.0013	 2576	 2576	 2576	 0	 0	 1	-30	 30;
	 163	 8	 0.02	 0.049136	 0.0629	 560	 560	 560	 0	 0	 1	-30	 30;
	 189	 9	 0.014444	 0.036173	 0.0018	 763	 763	 763	 0	 0	 1	-30	 30;
	 195	 9	 0.015679	 0.042593	 0.0019	 655	 655	 655	 0	 0	 1	-30	 30;
	 203	 8	 0.041975	 0.106173	 0.0125	 261	 261	 261	 0	 0	 1	-30	 30;
	 130	 8	 0.022753	 0.056914	 0.0028	 485	 485	 485	 0	 0	 1	-30	 30;
	 222	 8	 0.031235	 0.082839	 0.0042	 336	 336	 336	 0	 0	 1	-30	 30;
	 137	 10	 0.000672	 0.004405	 0.0081	 541	 541	 541	 0	 0	 1	-30	 30;
	 211	 10	 0.000968	 0.004602	 0.0081	 6560	 6560	 6560	 0	 0	 1	-30	 30;
	 137	 10	 0.000632	 0.004444	 0.0081	 440	 440	 440	 0	 0	 1	-30	 30;
	 188	 11	 0.008025	 0.021852	 0.001	 1276	 1276	 1276	 0	 0	 1	-30	 30;
	 71	 12	 0.057654	 0.152716	 0.0076	 182	 182	 182	 0	 0	 1	-30	 30;
	 74	 12	 0.037654	 0.101605	 0.0047	 275	 275	 275	 0	 0	 1	-30	 30;
	 118	 13	 0.005424	 0.009929	 0.0373	 2626	 2626	 2626	 0	 0	 1	-30	 30;
	 17	 14	 9.9e-05	 0.000415	 0.0456	 434	 434	 434	 0	 0	 1	-30	 30;
	 46	 15	 1e-06	 0.000104	 0.078	 1068	 1068	 1068	 0	 0	 1	-30	 30;
	 73	 15	 0.000353	 0.004584	 0.1184	 2357	 2357	 2357	 0	 0	 1	-30	 30;
	 101	 15	 0.000699	 0.009179	 0.3177	 2487	 2487	 2487	 0	 0	 1	-30	 30;
	 73	 15	 0.000353	 0.004584	 0.1184	 2357	 2357	 2357	 0	 0	 1	-30	 30;
	 101	 15	 0.000734	 0.009245	 0.3148	 2487	 2487	 2487	 0	 0	 1	-30	 30;
	 50	 15	 7e-06	 0.000104	 0.0029	 1382	 1382	 1382	 0	 0	 1	-30	 30;
	 49	 15	 7e-06	 0.000104	 0.0029	 1382	 1382	 1382	 0	 0	 1	-30	 30;
	 35	 16	 0.01	 0.026667	 0.0046	 1043	 1043	 1043	 0	 0	 1	-30	 30;
	 43	 16	 0.049259	 0.114321	 0.0079	 239	 239	 239	 0	 0	 1	-30	 30;
	 48	 16	 0.019383	 0.049383	 0.0256	 560	 560	 560	 0	 0	 1	-30	 30;
	 36	 16	 0.009877	 0.026667	 0.0046	 1045	 1045	 1045	 0	 0	 1	-30	 30;
	 47	 16	 0.02037	 0.052469	 0.0097	 528	 528	 528	 0	 0	 1	-30	 30;
	 72	 17	 0.002556	 0.017333	 0.0805	 418	 418	 418	 0	 0	 1	-30	 30;
	 137	 17	 0.008849	 0.062617	 0.1144	 471	 471	 471	 0	 0	 1	-30	 30;
	 217	 18	 0.000617	 0.001728	 0	 16188	 16188	 16188	 0	 0	 1	-30	 30;
	 104	 19	 0.055309	 0.140247	 0.0065	 198	 198	 198	 0	 0	 1	-30	 30;
	 178	 19	 0.027531	 0.070124	 0.0032	 395	 395	 395	 0	 0	 1	-30	 30;
	 54	 20	 0.055309	 0.150988	 0.0071	 185	 185	 185	 0	 0	 1	-30	 30;
	 81	 20	 0.039753	 0.108519	 0.005	 258	 258	 258	 0	 0	 1	-30	 30;
	 109	 20	 0.034691	 0.094568	 0.0044	 295	 295	 295	 0	 0	 1	-30	 30;
	 197	 21	 0.005432	 0.013827	 0.0066	 2000	 2000	 2000	 0	 0	 1	-30	 30;
	 99	 22	 0.008605	 0.022012	 0.001	 1257	 1257	 1257	 0	 0	 1	-30	 30;
	 100	 22	 0.013173	 0.041235	 0.002	 687	 687	 687	 0	 0	 1	-30	 30;
	 100	 23	 0.018148	 0.085185	 0.004	 342	 342	 342	 0	 0	 1	-30	 30;
	 108	 23	 0.035679	 0.097901	 0.0047	 286	 286	 286	 0	 0	 1	-30	 30;
	 198	 23	 0.056173	 0.23963	 0.0121	 122	 122	 122	 0	 0	 1	-30	 30;
	 190	 24	 0.010124	 0.025679	 0.0011	 1077	 1077	 1077	 0	 0	 1	-30	 30;
	 191	 24	 0.010247	 0.025926	 0.0013	 1066	 1066	 1066	 0	 0	 1	-30	 30;
	 219	 25	 0.008519	 0.016049	 0.0007	 1635	 1635	 1635	 0	 0	 1	-30	 30;
	 71	 26	 0.052963	 0.205926	 0.0119	 140	 140	 140	 0	 0	 1	-30	 30;
	 127	 27	 0.047407	 0.129383	 0.006	 216	 216	 216	 0	 0	 1	-30	 30;
	 113	 28	 0.015815	 0.042765	 0.0038	 656	 656	 656	 0	 0	 1	-30	 30;
	 202	 28	 0.01721	 0.046852	 0.0028	 599	 599	 599	 0	 0	 1	-30	 30;
	 196	 29	 2e-05	 9.9e-05	 0	 303961	 303961	 303961	 0	 0	 1	-30	 30;
	 178	 30	 0.012346	 0.034691	 0.0032	 807	 807	 807	 0	 0	 1	-30	 30;
	 141	 32	 0.014074	 0.051235	 0.0119	 560	 560	 560	 0	 0	 1	-30	 30;
	 160	 31	 0.023704	 0.064	 0.0031	 436	 436	 436	 0	 0	 1	-30	 30;
	 197	 32	 0.009136	 0.05358	 0.0028	 547	 547	 547	 0	 0	 1	-30	 30;
	 217	 32	 0.016296	 0.044198	 0.0045	 631	 631	 631	 0	 0	 1	-30	 30;
	 160	 31	 0.02337	 0.062988	 0.0053	 443	 443	 443	 0	 0	 1	-30	 30;
	 200	 33	 0.00237	 0.015803	 0.0294	 558	 558	 558	 0	 0	 1	-30	 30;
	 216	 34	 0.010988	 0.03	 0.0015	 930	 930	 930	 0	 0	 1	-30	 30;
	 134	 37	 0.00358	 0.009753	 0.0005	 2859	 2859	 2859	 0	 0	 1	-30	 30;
	 71	 38	 0.01037	 0.020741	 0.002	 1281	 1281	 1281	 0	 0	 1	-30	 30;
	 63	 39	 0.002346	 0.006296	 0.0003	 4421	 4421	 4421	 0	 0	 1	-30	 30;
	 121	 40	 0.019259	 0.052593	 0.0024	 531	 531	 531	 0	 0	 1	-30	 30;
	 128	 40	 0.01716	 0.044938	 0.0021	 618	 618	 618	 0	 0	 1	-30	 30;
	 215	 40	 0.025185	 0.064691	 0.0031	 428	 428	 428	 0	 0	 1	-30	 30;
	 128	 40	 0.00716	 0.029753	 0.0016	 971	 971	 971	 0	 0	 1	-30	 30;
	 201	 40	 0.046667	 0.125926	 0.006	 222	 222	 222	 0	 0	 1	-30	 30;
	 128	 40	 0.00716	 0.02963	 0.0016	 975	 975	 975	 0	 0	 1	-30	 30;
	 73	 41	 0.0016	 0.017334	 0.4043	 1579	 1579	 1579	 0	 0	 1	-30	 30;
	 101	 41	 0.000312	 0.004044	 0.1386	 2487	 2487	 2487	 0	 0	 1	-30	 30;
	 138	 41	 0.000824	 0.010499	 0.3754	 2487	 2487	 2487	 0	 0	 1	-30	 30;
	 180	 41	 0.00133	 0.014252	 0.3263	 1579	 1579	 1579	 0	 0	 1	-30	 30;
	 101	 41	 0.000312	 0.004044	 0.1386	 2487	 2487	 2487	 0	 0	 1	-30	 30;
	 138	 41	 0.000824	 0.010505	 0.3754	 2487	 2487	 2487	 0	 0	 1	-30	 30;
	 103	 42	 0.010617	 0.044444	 0.0023	 651	 651	 651	 0	 0	 1	-30	 30;
	 113	 42	 0.044198	 0.120864	 0.0058	 231	 231	 231	 0	 0	 1	-30	 30;
	 205	 44	 0.005185	 0.014198	 0.0006	 1966	 1966	 1966	 0	 0	 1	-30	 30;
	 175	 45	 0.011482	 0.024321	 0.0109	 1105	 1105	 1105	 0	 0	 1	-30	 30;
	 70	 51	 0.014074	 0.038889	 0.0018	 719	 719	 719	 0	 0	 1	-30	 30;
	 87	 51	 0.026667	 0.072963	 0.0034	 383	 383	 383	 0	 0	 1	-30	 30;
	 92	 51	 0.022099	 0.067778	 0.0033	 417	 417	 417	 0	 0	 1	-30	 30;
	 100	 52	 0.033704	 0.10358	 0.0053	 273	 273	 273	 0	 0	 1	-30	 30;
	 210	 52	 0.022222	 0.058395	 0.0028	 476	 476	 476	 0	 0	 1	-30	 30;
	 134	 53	 0.020494	 0.046049	 0.0021	 590	 590	 590	 0	 0	 1	-30	 30;
	 114	 54	 0.031975	 0.089753	 0.0042	 312	 312	 312	 0	 0	 1	-30	 30;
	 122	 54	 0.026296	 0.066667	 0.0031	 415	 415	 415	 0	 0	 1	-30	 30;
	 136	 54	 0.031975	 0.082963	 0.0037	 335	 335	 335	 0	 0	 1	-30	 30;
	 149	 54	 0.00437	 0.011975	 0.0097	 2331	 2331	 2331	 0	 0	 1	-30	 30;
	 154	 54	 0.002963	 0.018642	 0.0015	 1574	 1574	 1574	 0	 0	 1	-30	 30;
	 171	 54	 0.009136	 0.024938	 0.0011	 1119	 1119	 1119	 0	 0	 1	-30	 30;
	 208	 54	 0.009012	 0.022222	 0.001	 1239	 1239	 1239	 0	 0	 1	-30	 30;
	 122	 54	 0.026049	 0.071111	 0.0034	 393	 393	 393	 0	 0	 1	-30	 30;
	 153	 54	 0.006667	 0.01679	 0.0008	 1645	 1645	 1645	 0	 0	 1	-30	 30;
	 213	 54	 0.007802	 0.01979	 0.001	 1397	 1397	 1397	 0	 0	 1	-30	 30;
	 72	 55	 0.005491	 0.037076	 0.0658	 535	 535	 535	 0	 0	 1	-30	 30;
	 155	 55	 0.000454	 0.0032	 0.0051	 471	 471	 471	 0	 0	 1	-30	 30;
	 200	 55	 0.00083	 0.005669	 0.0111	 558	 558	 558	 0	 0	 1	-30	 30;
	 72	 55	 0.005412	 0.036543	 0.0658	 558	 558	 558	 0	 0	 1	-30	 30;
	 72	 55	 0.005432	 0.036543	 0.0658	 558	 558	 558	 0	 0	 1	-30	 30;
	 182	 56	 0.00963	 0.025309	 0.0013	 1097	 1097	 1097	 0	 0	 1	-30	 30;
	 215	 56	 0.037037	 0.094938	 0.0045	 292	 292	 292	 0	 0	 1	-30	 30;
	 188	 57	 0.032963	 0.083704	 0.0039	 331	 331	 331	 0	 0	 1	-30	 30;
	 209	 57	 0.037901	 0.103457	 0.0049	 270	 270	 270	 0	 0	 1	-30	 30;
	 77	 58	 0.038889	 0.098889	 0.0047	 280	 280	 280	 0	 0	 1	-30	 30;
	 193	 58	 0.002049	 0.005617	 0.0124	 4968	 4968	 4968	 0	 0	 1	-30	 30;
	 219	 58	 0.002481	 0.006531	 0.0003	 4252	 4252	 4252	 0	 0	 1	-30	 30;
	 130	 59	 0.011518	 0.029173	 0.0014	 948	 948	 948	 0	 0	 1	-30	 30;
	 99	 61	 0.000617	 0.001235	 0.0021	 21515	 21515	 21515	 0	 0	 1	-30	 30;
	 99	 60	 0.000617	 0.001235	 0.0016	 21515	 21515	 21515	 0	 0	 1	-30	 30;
	 100	 62	 0.000741	 0.001481	 0.0021	 17936	 17936	 17936	 0	 0	 1	-30	 30;
...